@<TRIPOS>MOLECULE
LIGAND
   48    49     0     0     0
SMALL
NO_CHARGES

@<TRIPOS>ATOM
      1 C1          0.5527   -4.6763    2.8294 C.ar      1 <0>         0.0000
      2 C2          0.3861   -3.6328    5.0020 C.ar      1 <0>         0.0000
      3 C3          0.3616   -3.4367    2.2193 C.ar      1 <0>         0.0000
      4 C4          0.1950   -2.3931    4.3919 C.ar      1 <0>         0.0000
      5 C5         -3.8478   -9.1385    8.3887 C.ar      1 <0>         0.0000
      6 C6         -1.7419   -7.9620    8.5226 C.ar      1 <0>         0.0000
      7 C7         -2.8007   -8.3034    6.3780 C.ar      1 <0>         0.0000
      8 C8          0.5649   -4.7745    4.2208 C.ar      1 <0>         0.0000
      9 C9         -2.7929   -8.6326    9.1482 C.ar      1 <0>         0.0000
     10 C10        -3.8516   -8.9740    7.0036 C.ar      1 <0>         0.0000
     11 C11        -1.7458   -7.7974    7.1375 C.ar      1 <0>         0.0000
     12 C12         0.1828   -2.2950    3.0005 C.ar      1 <0>         0.0000
     13 C13        -0.5237   -6.8648    5.1420 C.2       1 <0>         0.0000
     14 C14        -1.2695    0.6664    1.4655 C.2       1 <0>         0.0000
     15 C15        -2.7888   -8.8088   10.6292 C.3       1 <0>         0.0000
     16 C16        -4.9797   -9.5149    6.1917 C.3       1 <0>         0.0000
     17 C17        -2.1127   -0.6450    3.4402 C.3       1 <0>         0.0000
     18 C18        -1.9368   -1.7406    1.1608 C.3       1 <0>         0.0000
     19 C19         0.7697   -6.0997    4.8732 C.3       1 <0>         0.0000
     20 C20        -1.3523   -0.7069    2.1188 C.3       1 <0>         0.0000
     21 N1         -0.6795   -7.1169    6.5027 N.am      1 <0>         0.0000
     22 O1         -1.2838   -7.1879    4.2348 O.2       1 <0>         0.0000
     23 O2         -0.2225    1.2483    1.2072 O.2       1 <0>         0.0000
     24 O3         -2.4844    1.2043    1.1869 O.3       1 <0>         0.0000
     25 O4         -0.0032   -1.0794    2.4021 O.3       1 <0>         0.0000
     26 H1          0.6911   -5.5605    2.2130 H         1 <0>         0.0000
     27 H2          0.3940   -3.6998    6.0869 H         1 <0>         0.0000
     28 H3          0.3534   -3.3666    1.1348 H         1 <0>         0.0000
     29 H4          0.0567   -1.5076    5.0059 H         1 <0>         0.0000
     30 H5         -4.6673   -9.6614    8.8763 H         1 <0>         0.0000
     31 H6         -0.9202   -7.5683    9.1168 H         1 <0>         0.0000
     32 H7         -2.8059   -8.1759    5.2977 H         1 <0>         0.0000
     33 H8         -2.2837   -9.7437   10.9012 H         1 <0>         0.0000
     34 H9         -2.2740   -7.9774   11.1279 H         1 <0>         0.0000
     35 H10        -3.8105   -8.8358   11.0300 H         1 <0>         0.0000
     36 H11        -5.7724   -8.7635    6.0909 H         1 <0>         0.0000
     37 H12        -4.6448   -9.8042    5.1871 H         1 <0>         0.0000
     38 H13        -5.4086  -10.4134    6.6544 H         1 <0>         0.0000
     39 H14        -2.1818   -1.6244    3.9239 H         1 <0>         0.0000
     40 H15        -1.6301    0.0489    4.1376 H         1 <0>         0.0000
     41 H16        -3.1324   -0.2741    3.2836 H         1 <0>         0.0000
     42 H17        -1.9924   -2.7252    1.6396 H         1 <0>         0.0000
     43 H18        -1.3402   -1.8434    0.2490 H         1 <0>         0.0000
     44 H19        -2.9598   -1.4735    0.8729 H         1 <0>         0.0000
     45 H20         1.4192   -6.7371    4.2506 H         1 <0>         0.0000
     46 H21         1.2991   -5.9755    5.8323 H         1 <0>         0.0000
     47 H22         0.0595   -6.7716    7.1116 H         1 <0>         0.0000
     48 H23        -2.4751    2.0890    0.7653 H         1 <0>         0.0000
@<TRIPOS>BOND
     1    1    3 ar
     2    1    8 ar
     3    2    4 ar
     4    2    8 ar
     5    3   12 ar
     6    4   12 ar
     7    5    9 ar
     8    5   10 ar
     9    6    9 ar
    10    6   11 ar
    11    7   10 ar
    12    7   11 ar
    13    8   19 1
    14    9   15 1
    15   10   16 1
    16   11   21 1
    17   12   25 1
    18   13   19 1
    19   13   21 am
    20   13   22 2
    21   14   20 1
    22   14   23 2
    23   14   24 1
    24   17   20 1
    25   18   20 1
    26   20   25 1
    27    1   26 1
    28    2   27 1
    29    3   28 1
    30    4   29 1
    31    5   30 1
    32    6   31 1
    33    7   32 1
    34   15   33 1
    35   15   34 1
    36   15   35 1
    37   16   36 1
    38   16   37 1
    39   16   38 1
    40   17   39 1
    41   17   40 1
    42   17   41 1
    43   18   42 1
    44   18   43 1
    45   18   44 1
    46   19   45 1
    47   19   46 1
    48   21   47 1
    49   24   48 1
@<TRIPOS>MOLECULE
LIGAND
   48    49     0     0     0
SMALL
NO_CHARGES

@<TRIPOS>ATOM
      1 C1          0.5527   -4.6763    2.8294 C.ar      1 <0>         0.0000
      2 C2          0.3861   -3.6328    5.0020 C.ar      1 <0>         0.0000
      3 C3          0.3616   -3.4367    2.2193 C.ar      1 <0>         0.0000
      4 C4          0.1950   -2.3931    4.3919 C.ar      1 <0>         0.0000
      5 C5         -3.5531  -11.0068    4.4888 C.ar      1 <0>         0.0000
      6 C6         -1.3817  -10.2476    3.7504 C.ar      1 <0>         0.0000
      7 C7         -2.7127   -8.8610    5.2141 C.ar      1 <0>         0.0000
      8 C8          0.5649   -4.7745    4.2208 C.ar      1 <0>         0.0000
      9 C9         -2.3856  -11.2160    3.7547 C.ar      1 <0>         0.0000
     10 C10        -3.7167   -9.8293    5.2184 C.ar      1 <0>         0.0000
     11 C11        -1.5452   -9.0701    4.4801 C.ar      1 <0>         0.0000
     12 C12         0.1828   -2.2950    3.0005 C.ar      1 <0>         0.0000
     13 C13        -0.5237   -6.8648    5.1420 C.2       1 <0>         0.0000
     14 C14        -1.2695    0.6664    1.4655 C.2       1 <0>         0.0000
     15 C15        -2.2109  -12.4749    2.9745 C.3       1 <0>         0.0000
     16 C16        -4.9650   -9.6059    6.0034 C.3       1 <0>         0.0000
     17 C17        -2.1127   -0.6450    3.4402 C.3       1 <0>         0.0000
     18 C18        -1.9368   -1.7406    1.1608 C.3       1 <0>         0.0000
     19 C19         0.7697   -6.0997    4.8732 C.3       1 <0>         0.0000
     20 C20        -1.3523   -0.7069    2.1188 C.3       1 <0>         0.0000
     21 N1         -0.5265   -8.0877    4.4758 N.am      1 <0>         0.0000
     22 O1         -1.4079   -6.4075    5.8591 O.2       1 <0>         0.0000
     23 O2         -0.2225    1.2483    1.2072 O.2       1 <0>         0.0000
     24 O3         -2.4844    1.2043    1.1869 O.3       1 <0>         0.0000
     25 O4         -0.0032   -1.0794    2.4021 O.3       1 <0>         0.0000
     26 H1          0.6911   -5.5605    2.2130 H         1 <0>         0.0000
     27 H2          0.3940   -3.6998    6.0869 H         1 <0>         0.0000
     28 H3          0.3534   -3.3666    1.1348 H         1 <0>         0.0000
     29 H4          0.0567   -1.5076    5.0059 H         1 <0>         0.0000
     30 H5         -4.3360  -11.7617    4.4923 H         1 <0>         0.0000
     31 H6         -0.4720  -10.4127    3.1771 H         1 <0>         0.0000
     32 H7         -2.8423   -7.9436    5.7841 H         1 <0>         0.0000
     33 H8         -2.6005  -12.3506    1.9566 H         1 <0>         0.0000
     34 H9         -1.1529  -12.7599    2.9096 H         1 <0>         0.0000
     35 H10        -2.7373  -13.3137    3.4485 H         1 <0>         0.0000
     36 H11        -4.8502   -9.9952    7.0224 H         1 <0>         0.0000
     37 H12        -5.2114   -8.5380    6.0647 H         1 <0>         0.0000
     38 H13        -5.8243  -10.1037    5.5354 H         1 <0>         0.0000
     39 H14        -2.1818   -1.6244    3.9239 H         1 <0>         0.0000
     40 H15        -1.6301    0.0489    4.1376 H         1 <0>         0.0000
     41 H16        -3.1324   -0.2741    3.2836 H         1 <0>         0.0000
     42 H17        -1.9924   -2.7252    1.6396 H         1 <0>         0.0000
     43 H18        -1.3402   -1.8434    0.2490 H         1 <0>         0.0000
     44 H19        -2.9598   -1.4735    0.8729 H         1 <0>         0.0000
     45 H20         1.4192   -6.7371    4.2506 H         1 <0>         0.0000
     46 H21         1.2991   -5.9755    5.8323 H         1 <0>         0.0000
     47 H22         0.3003   -8.2996    3.9212 H         1 <0>         0.0000
     48 H23        -2.4751    2.0890    0.7653 H         1 <0>         0.0000
@<TRIPOS>BOND
     1    1    3 ar
     2    1    8 ar
     3    2    4 ar
     4    2    8 ar
     5    3   12 ar
     6    4   12 ar
     7    5    9 ar
     8    5   10 ar
     9    6    9 ar
    10    6   11 ar
    11    7   10 ar
    12    7   11 ar
    13    8   19 1
    14    9   15 1
    15   10   16 1
    16   11   21 1
    17   12   25 1
    18   13   19 1
    19   13   21 am
    20   13   22 2
    21   14   20 1
    22   14   23 2
    23   14   24 1
    24   17   20 1
    25   18   20 1
    26   20   25 1
    27    1   26 1
    28    2   27 1
    29    3   28 1
    30    4   29 1
    31    5   30 1
    32    6   31 1
    33    7   32 1
    34   15   33 1
    35   15   34 1
    36   15   35 1
    37   16   36 1
    38   16   37 1
    39   16   38 1
    40   17   39 1
    41   17   40 1
    42   17   41 1
    43   18   42 1
    44   18   43 1
    45   18   44 1
    46   19   45 1
    47   19   46 1
    48   21   47 1
    49   24   48 1
@<TRIPOS>MOLECULE
LIGAND
   48    49     0     0     0
SMALL
NO_CHARGES

@<TRIPOS>ATOM
      1 C1          0.5527   -4.6763    2.8294 C.ar      1 <0>         0.0000
      2 C2          0.3861   -3.6328    5.0020 C.ar      1 <0>         0.0000
      3 C3          0.3616   -3.4367    2.2193 C.ar      1 <0>         0.0000
      4 C4          0.1950   -2.3931    4.3919 C.ar      1 <0>         0.0000
      5 C5         -3.8478   -9.1385    8.3887 C.ar      1 <0>         0.0000
      6 C6         -1.7419   -7.9620    8.5226 C.ar      1 <0>         0.0000
      7 C7         -2.8007   -8.3034    6.3780 C.ar      1 <0>         0.0000
      8 C8          0.5649   -4.7745    4.2208 C.ar      1 <0>         0.0000
      9 C9         -2.7929   -8.6326    9.1482 C.ar      1 <0>         0.0000
     10 C10        -3.8516   -8.9740    7.0036 C.ar      1 <0>         0.0000
     11 C11        -1.7458   -7.7974    7.1375 C.ar      1 <0>         0.0000
     12 C12         0.1828   -2.2950    3.0005 C.ar      1 <0>         0.0000
     13 C13        -0.5237   -6.8648    5.1420 C.2       1 <0>         0.0000
     14 C14         0.6826    0.9680    1.4714 C.2       1 <0>         0.0000
     15 C15        -2.7888   -8.8088   10.6292 C.3       1 <0>         0.0000
     16 C16        -4.9797   -9.5149    6.1917 C.3       1 <0>         0.0000
     17 C17         2.0468   -1.1248    1.1725 C.3       1 <0>         0.0000
     18 C18         1.8710   -0.0299    3.4523 C.3       1 <0>         0.0000
     19 C19         0.7697   -6.0997    4.8732 C.3       1 <0>         0.0000
     20 C20         1.1722   -0.3168    2.1266 C.3       1 <0>         0.0000
     21 N1         -0.6795   -7.1169    6.5027 N.am      1 <0>         0.0000
     22 O1         -1.2838   -7.1879    4.2348 O.2       1 <0>         0.0000
     23 O2         -0.4971    1.2534    1.3028 O.2       1 <0>         0.0000
     24 O3          1.6894    1.7905    1.0803 O.3       1 <0>         0.0000
     25 O4         -0.0032   -1.0794    2.4021 O.3       1 <0>         0.0000
     26 H1          0.6911   -5.5605    2.2130 H         1 <0>         0.0000
     27 H2          0.3940   -3.6998    6.0869 H         1 <0>         0.0000
     28 H3          0.3534   -3.3666    1.1348 H         1 <0>         0.0000
     29 H4          0.0567   -1.5076    5.0059 H         1 <0>         0.0000
     30 H5         -4.6673   -9.6614    8.8763 H         1 <0>         0.0000
     31 H6         -0.9202   -7.5683    9.1168 H         1 <0>         0.0000
     32 H7         -2.8059   -8.1759    5.2977 H         1 <0>         0.0000
     33 H8         -2.2837   -9.7437   10.9012 H         1 <0>         0.0000
     34 H9         -2.2740   -7.9774   11.1279 H         1 <0>         0.0000
     35 H10        -3.8105   -8.8358   11.0300 H         1 <0>         0.0000
     36 H11        -5.7724   -8.7635    6.0909 H         1 <0>         0.0000
     37 H12        -4.6448   -9.8042    5.1871 H         1 <0>         0.0000
     38 H13        -5.4086  -10.4134    6.6544 H         1 <0>         0.0000
     39 H14         2.4077   -2.0525    1.6275 H         1 <0>         0.0000
     40 H15         1.4973   -1.3815    0.2598 H         1 <0>         0.0000
     41 H16         2.9204   -0.5413    0.8593 H         1 <0>         0.0000
     42 H17         2.2196   -0.9600    3.9160 H         1 <0>         0.0000
     43 H18         1.2128    0.4754    4.1659 H         1 <0>         0.0000
     44 H19         2.7573    0.5963    3.3003 H         1 <0>         0.0000
     45 H20         1.4192   -6.7371    4.2506 H         1 <0>         0.0000
     46 H21         1.2991   -5.9755    5.8323 H         1 <0>         0.0000
     47 H22         0.0595   -6.7716    7.1116 H         1 <0>         0.0000
     48 H23         1.4163    2.6294    0.6534 H         1 <0>         0.0000
@<TRIPOS>BOND
     1    1    3 ar
     2    1    8 ar
     3    2    4 ar
     4    2    8 ar
     5    3   12 ar
     6    4   12 ar
     7    5    9 ar
     8    5   10 ar
     9    6    9 ar
    10    6   11 ar
    11    7   10 ar
    12    7   11 ar
    13    8   19 1
    14    9   15 1
    15   10   16 1
    16   11   21 1
    17   12   25 1
    18   13   19 1
    19   13   21 am
    20   13   22 2
    21   14   20 1
    22   14   23 2
    23   14   24 1
    24   17   20 1
    25   18   20 1
    26   20   25 1
    27    1   26 1
    28    2   27 1
    29    3   28 1
    30    4   29 1
    31    5   30 1
    32    6   31 1
    33    7   32 1
    34   15   33 1
    35   15   34 1
    36   15   35 1
    37   16   36 1
    38   16   37 1
    39   16   38 1
    40   17   39 1
    41   17   40 1
    42   17   41 1
    43   18   42 1
    44   18   43 1
    45   18   44 1
    46   19   45 1
    47   19   46 1
    48   21   47 1
    49   24   48 1
@<TRIPOS>MOLECULE
LIGAND
   48    49     0     0     0
SMALL
NO_CHARGES

@<TRIPOS>ATOM
      1 C1          0.5527   -4.6763    2.8294 C.ar      1 <0>         0.0000
      2 C2          0.3861   -3.6328    5.0020 C.ar      1 <0>         0.0000
      3 C3          0.3616   -3.4367    2.2193 C.ar      1 <0>         0.0000
      4 C4          0.1950   -2.3931    4.3919 C.ar      1 <0>         0.0000
      5 C5         -3.5531  -11.0068    4.4888 C.ar      1 <0>         0.0000
      6 C6         -1.3817  -10.2476    3.7504 C.ar      1 <0>         0.0000
      7 C7         -2.7127   -8.8610    5.2141 C.ar      1 <0>         0.0000
      8 C8          0.5649   -4.7745    4.2208 C.ar      1 <0>         0.0000
      9 C9         -2.3856  -11.2160    3.7547 C.ar      1 <0>         0.0000
     10 C10        -3.7167   -9.8293    5.2184 C.ar      1 <0>         0.0000
     11 C11        -1.5452   -9.0701    4.4801 C.ar      1 <0>         0.0000
     12 C12         0.1828   -2.2950    3.0005 C.ar      1 <0>         0.0000
     13 C13        -0.5237   -6.8648    5.1420 C.2       1 <0>         0.0000
     14 C14         0.6826    0.9680    1.4714 C.2       1 <0>         0.0000
     15 C15        -2.2109  -12.4749    2.9745 C.3       1 <0>         0.0000
     16 C16        -4.9650   -9.6059    6.0034 C.3       1 <0>         0.0000
     17 C17         2.0468   -1.1248    1.1725 C.3       1 <0>         0.0000
     18 C18         1.8710   -0.0299    3.4523 C.3       1 <0>         0.0000
     19 C19         0.7697   -6.0997    4.8732 C.3       1 <0>         0.0000
     20 C20         1.1722   -0.3168    2.1266 C.3       1 <0>         0.0000
     21 N1         -0.5265   -8.0877    4.4758 N.am      1 <0>         0.0000
     22 O1         -1.4079   -6.4075    5.8591 O.2       1 <0>         0.0000
     23 O2         -0.4971    1.2534    1.3028 O.2       1 <0>         0.0000
     24 O3          1.6894    1.7905    1.0803 O.3       1 <0>         0.0000
     25 O4         -0.0032   -1.0794    2.4021 O.3       1 <0>         0.0000
     26 H1          0.6911   -5.5605    2.2130 H         1 <0>         0.0000
     27 H2          0.3940   -3.6998    6.0869 H         1 <0>         0.0000
     28 H3          0.3534   -3.3666    1.1348 H         1 <0>         0.0000
     29 H4          0.0567   -1.5076    5.0059 H         1 <0>         0.0000
     30 H5         -4.3360  -11.7617    4.4923 H         1 <0>         0.0000
     31 H6         -0.4720  -10.4127    3.1771 H         1 <0>         0.0000
     32 H7         -2.8423   -7.9436    5.7841 H         1 <0>         0.0000
     33 H8         -2.6005  -12.3506    1.9566 H         1 <0>         0.0000
     34 H9         -1.1529  -12.7599    2.9096 H         1 <0>         0.0000
     35 H10        -2.7373  -13.3137    3.4485 H         1 <0>         0.0000
     36 H11        -4.8502   -9.9952    7.0224 H         1 <0>         0.0000
     37 H12        -5.2114   -8.5380    6.0647 H         1 <0>         0.0000
     38 H13        -5.8243  -10.1037    5.5354 H         1 <0>         0.0000
     39 H14         2.4077   -2.0525    1.6275 H         1 <0>         0.0000
     40 H15         1.4973   -1.3815    0.2598 H         1 <0>         0.0000
     41 H16         2.9204   -0.5413    0.8593 H         1 <0>         0.0000
     42 H17         2.2196   -0.9600    3.9160 H         1 <0>         0.0000
     43 H18         1.2128    0.4754    4.1659 H         1 <0>         0.0000
     44 H19         2.7573    0.5963    3.3003 H         1 <0>         0.0000
     45 H20         1.4192   -6.7371    4.2506 H         1 <0>         0.0000
     46 H21         1.2991   -5.9755    5.8323 H         1 <0>         0.0000
     47 H22         0.3003   -8.2996    3.9212 H         1 <0>         0.0000
     48 H23         1.4163    2.6294    0.6534 H         1 <0>         0.0000
@<TRIPOS>BOND
     1    1    3 ar
     2    1    8 ar
     3    2    4 ar
     4    2    8 ar
     5    3   12 ar
     6    4   12 ar
     7    5    9 ar
     8    5   10 ar
     9    6    9 ar
    10    6   11 ar
    11    7   10 ar
    12    7   11 ar
    13    8   19 1
    14    9   15 1
    15   10   16 1
    16   11   21 1
    17   12   25 1
    18   13   19 1
    19   13   21 am
    20   13   22 2
    21   14   20 1
    22   14   23 2
    23   14   24 1
    24   17   20 1
    25   18   20 1
    26   20   25 1
    27    1   26 1
    28    2   27 1
    29    3   28 1
    30    4   29 1
    31    5   30 1
    32    6   31 1
    33    7   32 1
    34   15   33 1
    35   15   34 1
    36   15   35 1
    37   16   36 1
    38   16   37 1
    39   16   38 1
    40   17   39 1
    41   17   40 1
    42   17   41 1
    43   18   42 1
    44   18   43 1
    45   18   44 1
    46   19   45 1
    47   19   46 1
    48   21   47 1
    49   24   48 1
@<TRIPOS>MOLECULE
LIGAND
   48    49     0     0     0
SMALL
NO_CHARGES

@<TRIPOS>ATOM
      1 C1          0.5527   -4.6763    2.8294 C.ar      1 <0>         0.0000
      2 C2          0.3861   -3.6328    5.0020 C.ar      1 <0>         0.0000
      3 C3          0.3616   -3.4367    2.2193 C.ar      1 <0>         0.0000
      4 C4          0.1950   -2.3931    4.3919 C.ar      1 <0>         0.0000
      5 C5          0.2627   -7.0528   11.3346 C.ar      1 <0>         0.0000
      6 C6          1.8165   -6.9365    9.4883 C.ar      1 <0>         0.0000
      7 C7         -0.5464   -6.6144    9.1007 C.ar      1 <0>         0.0000
      8 C8          0.5649   -4.7745    4.2208 C.ar      1 <0>         0.0000
      9 C9          1.5682   -7.1214   10.8483 C.ar      1 <0>         0.0000
     10 C10        -0.7947   -6.7994   10.4607 C.ar      1 <0>         0.0000
     11 C11         0.7592   -6.6830    8.6144 C.ar      1 <0>         0.0000
     12 C12         0.1828   -2.2950    3.0005 C.ar      1 <0>         0.0000
     13 C13         0.0825   -6.2356    6.2297 C.2       1 <0>         0.0000
     14 C14        -1.2695    0.6664    1.4655 C.2       1 <0>         0.0000
     15 C15         2.6985   -7.3926   11.7827 C.3       1 <0>         0.0000
     16 C16        -2.1905   -6.7259   10.9808 C.3       1 <0>         0.0000
     17 C17        -2.1127   -0.6450    3.4402 C.3       1 <0>         0.0000
     18 C18        -1.9368   -1.7406    1.1608 C.3       1 <0>         0.0000
     19 C19         0.7697   -6.0997    4.8732 C.3       1 <0>         0.0000
     20 C20        -1.3523   -0.7069    2.1188 C.3       1 <0>         0.0000
     21 N1          1.0111   -6.4953    7.2345 N.am      1 <0>         0.0000
     22 O1         -1.1328   -6.1219    6.3526 O.2       1 <0>         0.0000
     23 O2         -0.2225    1.2483    1.2072 O.2       1 <0>         0.0000
     24 O3         -2.4844    1.2043    1.1869 O.3       1 <0>         0.0000
     25 O4         -0.0032   -1.0794    2.4021 O.3       1 <0>         0.0000
     26 H1          0.6911   -5.5605    2.2130 H         1 <0>         0.0000
     27 H2          0.3940   -3.6998    6.0869 H         1 <0>         0.0000
     28 H3          0.3534   -3.3666    1.1348 H         1 <0>         0.0000
     29 H4          0.0567   -1.5076    5.0059 H         1 <0>         0.0000
     30 H5          0.0688   -7.1969   12.3949 H         1 <0>         0.0000
     31 H6          2.8354   -6.9906    9.1112 H         1 <0>         0.0000
     32 H7         -1.3724   -6.4166    8.4210 H         1 <0>         0.0000
     33 H8          2.8762   -8.4719   11.8642 H         1 <0>         0.0000
     34 H9          3.6239   -6.9127   11.4386 H         1 <0>         0.0000
     35 H10         2.4900   -6.9975   12.7856 H         1 <0>         0.0000
     36 H11        -2.4361   -5.6972   11.2716 H         1 <0>         0.0000
     37 H12        -2.9151   -7.0563   10.2254 H         1 <0>         0.0000
     38 H13        -2.3246   -7.3761   11.8552 H         1 <0>         0.0000
     39 H14        -2.1818   -1.6244    3.9239 H         1 <0>         0.0000
     40 H15        -1.6301    0.0489    4.1376 H         1 <0>         0.0000
     41 H16        -3.1324   -0.2741    3.2836 H         1 <0>         0.0000
     42 H17        -1.9924   -2.7252    1.6396 H         1 <0>         0.0000
     43 H18        -1.3402   -1.8434    0.2490 H         1 <0>         0.0000
     44 H19        -2.9598   -1.4735    0.8729 H         1 <0>         0.0000
     45 H20         0.4001   -6.9088    4.2218 H         1 <0>         0.0000
     46 H21         1.8458   -6.2938    5.0142 H         1 <0>         0.0000
     47 H22         1.9843   -6.5573    6.9424 H         1 <0>         0.0000
     48 H23        -2.4751    2.0890    0.7653 H         1 <0>         0.0000
@<TRIPOS>BOND
     1    1    3 ar
     2    1    8 ar
     3    2    4 ar
     4    2    8 ar
     5    3   12 ar
     6    4   12 ar
     7    5    9 ar
     8    5   10 ar
     9    6    9 ar
    10    6   11 ar
    11    7   10 ar
    12    7   11 ar
    13    8   19 1
    14    9   15 1
    15   10   16 1
    16   11   21 1
    17   12   25 1
    18   13   19 1
    19   13   21 am
    20   13   22 2
    21   14   20 1
    22   14   23 2
    23   14   24 1
    24   17   20 1
    25   18   20 1
    26   20   25 1
    27    1   26 1
    28    2   27 1
    29    3   28 1
    30    4   29 1
    31    5   30 1
    32    6   31 1
    33    7   32 1
    34   15   33 1
    35   15   34 1
    36   15   35 1
    37   16   36 1
    38   16   37 1
    39   16   38 1
    40   17   39 1
    41   17   40 1
    42   17   41 1
    43   18   42 1
    44   18   43 1
    45   18   44 1
    46   19   45 1
    47   19   46 1
    48   21   47 1
    49   24   48 1
@<TRIPOS>MOLECULE
LIGAND
   48    49     0     0     0
SMALL
NO_CHARGES

@<TRIPOS>ATOM
      1 C1          0.5527   -4.6763    2.8294 C.ar      1 <0>         0.0000
      2 C2          0.3861   -3.6328    5.0020 C.ar      1 <0>         0.0000
      3 C3          0.3616   -3.4367    2.2193 C.ar      1 <0>         0.0000
      4 C4          0.1950   -2.3931    4.3919 C.ar      1 <0>         0.0000
      5 C5          1.5175   -6.8510   11.3378 C.ar      1 <0>         0.0000
      6 C6          0.0071   -7.2089    9.4865 C.ar      1 <0>         0.0000
      7 C7          2.1649   -6.1911    9.1057 C.ar      1 <0>         0.0000
      8 C8          0.5649   -4.7745    4.2208 C.ar      1 <0>         0.0000
      9 C9          0.2948   -7.3095   10.8477 C.ar      1 <0>         0.0000
     10 C10         2.4526   -6.2917   10.4668 C.ar      1 <0>         0.0000
     11 C11         0.9421   -6.6496    8.6155 C.ar      1 <0>         0.0000
     12 C12         0.1828   -2.2950    3.0005 C.ar      1 <0>         0.0000
     13 C13         1.4611   -6.0213    6.2321 C.2       1 <0>         0.0000
     14 C14        -1.2695    0.6664    1.4655 C.2       1 <0>         0.0000
     15 C15        -0.7049   -7.9073   11.7791 C.3       1 <0>         0.0000
     16 C16         3.7600   -5.8016   10.9910 C.3       1 <0>         0.0000
     17 C17        -2.1127   -0.6450    3.4402 C.3       1 <0>         0.0000
     18 C18        -1.9368   -1.7406    1.1608 C.3       1 <0>         0.0000
     19 C19         0.7697   -6.0997    4.8732 C.3       1 <0>         0.0000
     20 C20        -1.3523   -0.7069    2.1188 C.3       1 <0>         0.0000
     21 N1          0.6502   -6.5476    7.2344 N.am      1 <0>         0.0000
     22 O1          2.5842   -5.5442    6.3591 O.2       1 <0>         0.0000
     23 O2         -0.2225    1.2483    1.2072 O.2       1 <0>         0.0000
     24 O3         -2.4844    1.2043    1.1869 O.3       1 <0>         0.0000
     25 O4         -0.0032   -1.0794    2.4021 O.3       1 <0>         0.0000
     26 H1          0.6911   -5.5605    2.2130 H         1 <0>         0.0000
     27 H2          0.3940   -3.6998    6.0869 H         1 <0>         0.0000
     28 H3          0.3534   -3.3666    1.1348 H         1 <0>         0.0000
     29 H4          0.0567   -1.5076    5.0059 H         1 <0>         0.0000
     30 H5          1.7421   -6.9294   12.3990 H         1 <0>         0.0000
     31 H6         -0.9472   -7.5670    9.1064 H         1 <0>         0.0000
     32 H7          2.8956   -5.7548    8.4282 H         1 <0>         0.0000
     33 H8         -1.3719   -7.1308   12.1732 H         1 <0>         0.0000
     34 H9         -1.3156   -8.6670   11.2741 H         1 <0>         0.0000
     35 H10        -0.2133   -8.4058   12.6247 H         1 <0>         0.0000
     36 H11         4.5057   -6.6057   10.9695 H         1 <0>         0.0000
     37 H12         4.1380   -4.9605   10.3955 H         1 <0>         0.0000
     38 H13         3.6655   -5.4421   12.0241 H         1 <0>         0.0000
     39 H14        -2.1818   -1.6244    3.9239 H         1 <0>         0.0000
     40 H15        -1.6301    0.0489    4.1376 H         1 <0>         0.0000
     41 H16        -3.1324   -0.2741    3.2836 H         1 <0>         0.0000
     42 H17        -1.9924   -2.7252    1.6396 H         1 <0>         0.0000
     43 H18        -1.3402   -1.8434    0.2490 H         1 <0>         0.0000
     44 H19        -2.9598   -1.4735    0.8729 H         1 <0>         0.0000
     45 H20        -0.1967   -6.6120    5.0121 H         1 <0>         0.0000
     46 H21         1.3690   -6.7574    4.2222 H         1 <0>         0.0000
     47 H22        -0.2581   -6.8999    6.9395 H         1 <0>         0.0000
     48 H23        -2.4751    2.0890    0.7653 H         1 <0>         0.0000
@<TRIPOS>BOND
     1    1    3 ar
     2    1    8 ar
     3    2    4 ar
     4    2    8 ar
     5    3   12 ar
     6    4   12 ar
     7    5    9 ar
     8    5   10 ar
     9    6    9 ar
    10    6   11 ar
    11    7   10 ar
    12    7   11 ar
    13    8   19 1
    14    9   15 1
    15   10   16 1
    16   11   21 1
    17   12   25 1
    18   13   19 1
    19   13   21 am
    20   13   22 2
    21   14   20 1
    22   14   23 2
    23   14   24 1
    24   17   20 1
    25   18   20 1
    26   20   25 1
    27    1   26 1
    28    2   27 1
    29    3   28 1
    30    4   29 1
    31    5   30 1
    32    6   31 1
    33    7   32 1
    34   15   33 1
    35   15   34 1
    36   15   35 1
    37   16   36 1
    38   16   37 1
    39   16   38 1
    40   17   39 1
    41   17   40 1
    42   17   41 1
    43   18   42 1
    44   18   43 1
    45   18   44 1
    46   19   45 1
    47   19   46 1
    48   21   47 1
    49   24   48 1
@<TRIPOS>MOLECULE
LIGAND
   48    49     0     0     0
SMALL
NO_CHARGES

@<TRIPOS>ATOM
      1 C1          0.5527   -4.6763    2.8294 C.ar      1 <0>         0.0000
      2 C2          0.3861   -3.6328    5.0020 C.ar      1 <0>         0.0000
      3 C3          0.3616   -3.4367    2.2193 C.ar      1 <0>         0.0000
      4 C4          0.1950   -2.3931    4.3919 C.ar      1 <0>         0.0000
      5 C5          0.2627   -7.0528   11.3346 C.ar      1 <0>         0.0000
      6 C6          1.8165   -6.9365    9.4883 C.ar      1 <0>         0.0000
      7 C7         -0.5464   -6.6144    9.1007 C.ar      1 <0>         0.0000
      8 C8          0.5649   -4.7745    4.2208 C.ar      1 <0>         0.0000
      9 C9          1.5682   -7.1214   10.8483 C.ar      1 <0>         0.0000
     10 C10        -0.7947   -6.7994   10.4607 C.ar      1 <0>         0.0000
     11 C11         0.7592   -6.6830    8.6144 C.ar      1 <0>         0.0000
     12 C12         0.1828   -2.2950    3.0005 C.ar      1 <0>         0.0000
     13 C13         0.0825   -6.2356    6.2297 C.2       1 <0>         0.0000
     14 C14         0.6826    0.9680    1.4714 C.2       1 <0>         0.0000
     15 C15         2.6985   -7.3926   11.7827 C.3       1 <0>         0.0000
     16 C16        -2.1905   -6.7259   10.9808 C.3       1 <0>         0.0000
     17 C17         2.0468   -1.1248    1.1725 C.3       1 <0>         0.0000
     18 C18         1.8710   -0.0299    3.4523 C.3       1 <0>         0.0000
     19 C19         0.7697   -6.0997    4.8732 C.3       1 <0>         0.0000
     20 C20         1.1722   -0.3168    2.1266 C.3       1 <0>         0.0000
     21 N1          1.0111   -6.4953    7.2345 N.am      1 <0>         0.0000
     22 O1         -1.1328   -6.1219    6.3526 O.2       1 <0>         0.0000
     23 O2         -0.4971    1.2534    1.3028 O.2       1 <0>         0.0000
     24 O3          1.6894    1.7905    1.0803 O.3       1 <0>         0.0000
     25 O4         -0.0032   -1.0794    2.4021 O.3       1 <0>         0.0000
     26 H1          0.6911   -5.5605    2.2130 H         1 <0>         0.0000
     27 H2          0.3940   -3.6998    6.0869 H         1 <0>         0.0000
     28 H3          0.3534   -3.3666    1.1348 H         1 <0>         0.0000
     29 H4          0.0567   -1.5076    5.0059 H         1 <0>         0.0000
     30 H5          0.0688   -7.1969   12.3949 H         1 <0>         0.0000
     31 H6          2.8354   -6.9906    9.1112 H         1 <0>         0.0000
     32 H7         -1.3724   -6.4166    8.4210 H         1 <0>         0.0000
     33 H8          2.8762   -8.4719   11.8642 H         1 <0>         0.0000
     34 H9          3.6239   -6.9127   11.4386 H         1 <0>         0.0000
     35 H10         2.4900   -6.9975   12.7856 H         1 <0>         0.0000
     36 H11        -2.4361   -5.6972   11.2716 H         1 <0>         0.0000
     37 H12        -2.9151   -7.0563   10.2254 H         1 <0>         0.0000
     38 H13        -2.3246   -7.3761   11.8552 H         1 <0>         0.0000
     39 H14         2.4077   -2.0525    1.6275 H         1 <0>         0.0000
     40 H15         1.4973   -1.3815    0.2598 H         1 <0>         0.0000
     41 H16         2.9204   -0.5413    0.8593 H         1 <0>         0.0000
     42 H17         2.2196   -0.9600    3.9160 H         1 <0>         0.0000
     43 H18         1.2128    0.4754    4.1659 H         1 <0>         0.0000
     44 H19         2.7573    0.5963    3.3003 H         1 <0>         0.0000
     45 H20         0.4001   -6.9088    4.2218 H         1 <0>         0.0000
     46 H21         1.8458   -6.2938    5.0142 H         1 <0>         0.0000
     47 H22         1.9843   -6.5573    6.9424 H         1 <0>         0.0000
     48 H23         1.4163    2.6294    0.6534 H         1 <0>         0.0000
@<TRIPOS>BOND
     1    1    3 ar
     2    1    8 ar
     3    2    4 ar
     4    2    8 ar
     5    3   12 ar
     6    4   12 ar
     7    5    9 ar
     8    5   10 ar
     9    6    9 ar
    10    6   11 ar
    11    7   10 ar
    12    7   11 ar
    13    8   19 1
    14    9   15 1
    15   10   16 1
    16   11   21 1
    17   12   25 1
    18   13   19 1
    19   13   21 am
    20   13   22 2
    21   14   20 1
    22   14   23 2
    23   14   24 1
    24   17   20 1
    25   18   20 1
    26   20   25 1
    27    1   26 1
    28    2   27 1
    29    3   28 1
    30    4   29 1
    31    5   30 1
    32    6   31 1
    33    7   32 1
    34   15   33 1
    35   15   34 1
    36   15   35 1
    37   16   36 1
    38   16   37 1
    39   16   38 1
    40   17   39 1
    41   17   40 1
    42   17   41 1
    43   18   42 1
    44   18   43 1
    45   18   44 1
    46   19   45 1
    47   19   46 1
    48   21   47 1
    49   24   48 1
@<TRIPOS>MOLECULE
LIGAND
   48    49     0     0     0
SMALL
NO_CHARGES

@<TRIPOS>ATOM
      1 C1          0.5527   -4.6763    2.8294 C.ar      1 <0>         0.0000
      2 C2          0.3861   -3.6328    5.0020 C.ar      1 <0>         0.0000
      3 C3          0.3616   -3.4367    2.2193 C.ar      1 <0>         0.0000
      4 C4          0.1950   -2.3931    4.3919 C.ar      1 <0>         0.0000
      5 C5          1.5175   -6.8510   11.3378 C.ar      1 <0>         0.0000
      6 C6          0.0071   -7.2089    9.4865 C.ar      1 <0>         0.0000
      7 C7          2.1649   -6.1911    9.1057 C.ar      1 <0>         0.0000
      8 C8          0.5649   -4.7745    4.2208 C.ar      1 <0>         0.0000
      9 C9          0.2948   -7.3095   10.8477 C.ar      1 <0>         0.0000
     10 C10         2.4526   -6.2917   10.4668 C.ar      1 <0>         0.0000
     11 C11         0.9421   -6.6496    8.6155 C.ar      1 <0>         0.0000
     12 C12         0.1828   -2.2950    3.0005 C.ar      1 <0>         0.0000
     13 C13         1.4611   -6.0213    6.2321 C.2       1 <0>         0.0000
     14 C14         0.6826    0.9680    1.4714 C.2       1 <0>         0.0000
     15 C15        -0.7049   -7.9073   11.7791 C.3       1 <0>         0.0000
     16 C16         3.7600   -5.8016   10.9910 C.3       1 <0>         0.0000
     17 C17         2.0468   -1.1248    1.1725 C.3       1 <0>         0.0000
     18 C18         1.8710   -0.0299    3.4523 C.3       1 <0>         0.0000
     19 C19         0.7697   -6.0997    4.8732 C.3       1 <0>         0.0000
     20 C20         1.1722   -0.3168    2.1266 C.3       1 <0>         0.0000
     21 N1          0.6502   -6.5476    7.2344 N.am      1 <0>         0.0000
     22 O1          2.5842   -5.5442    6.3591 O.2       1 <0>         0.0000
     23 O2         -0.4971    1.2534    1.3028 O.2       1 <0>         0.0000
     24 O3          1.6894    1.7905    1.0803 O.3       1 <0>         0.0000
     25 O4         -0.0032   -1.0794    2.4021 O.3       1 <0>         0.0000
     26 H1          0.6911   -5.5605    2.2130 H         1 <0>         0.0000
     27 H2          0.3940   -3.6998    6.0869 H         1 <0>         0.0000
     28 H3          0.3534   -3.3666    1.1348 H         1 <0>         0.0000
     29 H4          0.0567   -1.5076    5.0059 H         1 <0>         0.0000
     30 H5          1.7421   -6.9294   12.3990 H         1 <0>         0.0000
     31 H6         -0.9472   -7.5670    9.1064 H         1 <0>         0.0000
     32 H7          2.8956   -5.7548    8.4282 H         1 <0>         0.0000
     33 H8         -1.3719   -7.1308   12.1732 H         1 <0>         0.0000
     34 H9         -1.3156   -8.6670   11.2741 H         1 <0>         0.0000
     35 H10        -0.2133   -8.4058   12.6247 H         1 <0>         0.0000
     36 H11         4.5057   -6.6057   10.9695 H         1 <0>         0.0000
     37 H12         4.1380   -4.9605   10.3955 H         1 <0>         0.0000
     38 H13         3.6655   -5.4421   12.0241 H         1 <0>         0.0000
     39 H14         2.4077   -2.0525    1.6275 H         1 <0>         0.0000
     40 H15         1.4973   -1.3815    0.2598 H         1 <0>         0.0000
     41 H16         2.9204   -0.5413    0.8593 H         1 <0>         0.0000
     42 H17         2.2196   -0.9600    3.9160 H         1 <0>         0.0000
     43 H18         1.2128    0.4754    4.1659 H         1 <0>         0.0000
     44 H19         2.7573    0.5963    3.3003 H         1 <0>         0.0000
     45 H20        -0.1967   -6.6120    5.0121 H         1 <0>         0.0000
     46 H21         1.3690   -6.7574    4.2222 H         1 <0>         0.0000
     47 H22        -0.2581   -6.8999    6.9395 H         1 <0>         0.0000
     48 H23         1.4163    2.6294    0.6534 H         1 <0>         0.0000
@<TRIPOS>BOND
     1    1    3 ar
     2    1    8 ar
     3    2    4 ar
     4    2    8 ar
     5    3   12 ar
     6    4   12 ar
     7    5    9 ar
     8    5   10 ar
     9    6    9 ar
    10    6   11 ar
    11    7   10 ar
    12    7   11 ar
    13    8   19 1
    14    9   15 1
    15   10   16 1
    16   11   21 1
    17   12   25 1
    18   13   19 1
    19   13   21 am
    20   13   22 2
    21   14   20 1
    22   14   23 2
    23   14   24 1
    24   17   20 1
    25   18   20 1
    26   20   25 1
    27    1   26 1
    28    2   27 1
    29    3   28 1
    30    4   29 1
    31    5   30 1
    32    6   31 1
    33    7   32 1
    34   15   33 1
    35   15   34 1
    36   15   35 1
    37   16   36 1
    38   16   37 1
    39   16   38 1
    40   17   39 1
    41   17   40 1
    42   17   41 1
    43   18   42 1
    44   18   43 1
    45   18   44 1
    46   19   45 1
    47   19   46 1
    48   21   47 1
    49   24   48 1
@<TRIPOS>MOLECULE
LIGAND
   48    49     0     0     0
SMALL
NO_CHARGES

@<TRIPOS>ATOM
      1 C1          0.5527   -4.6763    2.8294 C.ar      1 <0>         0.0000
      2 C2          0.3861   -3.6328    5.0020 C.ar      1 <0>         0.0000
      3 C3          0.3616   -3.4367    2.2193 C.ar      1 <0>         0.0000
      4 C4          0.1950   -2.3931    4.3919 C.ar      1 <0>         0.0000
      5 C5         -5.1661   -7.2608    7.3896 C.ar      1 <0>         0.0000
      6 C6         -3.3551   -5.6643    7.3003 C.ar      1 <0>         0.0000
      7 C7         -3.1941   -7.7430    6.0798 C.ar      1 <0>         0.0000
      8 C8          0.5649   -4.7745    4.2208 C.ar      1 <0>         0.0000
      9 C9         -4.6161   -6.0357    7.7667 C.ar      1 <0>         0.0000
     10 C10        -4.4551   -8.1145    6.5461 C.ar      1 <0>         0.0000
     11 C11        -2.6441   -6.5179    6.4568 C.ar      1 <0>         0.0000
     12 C12         0.1828   -2.2950    3.0005 C.ar      1 <0>         0.0000
     13 C13        -0.5237   -6.8648    5.1420 C.2       1 <0>         0.0000
     14 C14        -1.2695    0.6664    1.4655 C.2       1 <0>         0.0000
     15 C15        -5.3764   -5.1232    8.6687 C.3       1 <0>         0.0000
     16 C16        -5.0434   -9.4243    6.1429 C.3       1 <0>         0.0000
     17 C17        -2.1127   -0.6450    3.4402 C.3       1 <0>         0.0000
     18 C18        -1.9368   -1.7406    1.1608 C.3       1 <0>         0.0000
     19 C19         0.7697   -6.0997    4.8732 C.3       1 <0>         0.0000
     20 C20        -1.3523   -0.7069    2.1188 C.3       1 <0>         0.0000
     21 N1         -1.3647   -6.1410    5.9836 N.am      1 <0>         0.0000
     22 O1         -0.7345   -7.9698    4.6525 O.2       1 <0>         0.0000
     23 O2         -0.2225    1.2483    1.2072 O.2       1 <0>         0.0000
     24 O3         -2.4844    1.2043    1.1869 O.3       1 <0>         0.0000
     25 O4         -0.0032   -1.0794    2.4021 O.3       1 <0>         0.0000
     26 H1          0.6911   -5.5605    2.2130 H         1 <0>         0.0000
     27 H2          0.3940   -3.6998    6.0869 H         1 <0>         0.0000
     28 H3          0.3534   -3.3666    1.1348 H         1 <0>         0.0000
     29 H4          0.0567   -1.5076    5.0059 H         1 <0>         0.0000
     30 H5         -6.1493   -7.5506    7.7530 H         1 <0>         0.0000
     31 H6         -2.9280   -4.7084    7.5958 H         1 <0>         0.0000
     32 H7         -2.6415   -8.4102    5.4218 H         1 <0>         0.0000
     33 H8         -5.1369   -5.3362    9.7176 H         1 <0>         0.0000
     34 H9         -5.1381   -4.0713    8.4641 H         1 <0>         0.0000
     35 H10        -6.4594   -5.2363    8.5290 H         1 <0>         0.0000
     36 H11        -5.6281   -9.3129    5.2215 H         1 <0>         0.0000
     37 H12        -4.2621  -10.1759    5.9705 H         1 <0>         0.0000
     38 H13        -5.7009   -9.8237    6.9261 H         1 <0>         0.0000
     39 H14        -2.1818   -1.6244    3.9239 H         1 <0>         0.0000
     40 H15        -1.6301    0.0489    4.1376 H         1 <0>         0.0000
     41 H16        -3.1324   -0.2741    3.2836 H         1 <0>         0.0000
     42 H17        -1.9924   -2.7252    1.6396 H         1 <0>         0.0000
     43 H18        -1.3402   -1.8434    0.2490 H         1 <0>         0.0000
     44 H19        -2.9598   -1.4735    0.8729 H         1 <0>         0.0000
     45 H20         1.4192   -6.7371    4.2506 H         1 <0>         0.0000
     46 H21         1.2991   -5.9755    5.8323 H         1 <0>         0.0000
     47 H22        -1.0190   -5.2355    6.2945 H         1 <0>         0.0000
     48 H23        -2.4751    2.0890    0.7653 H         1 <0>         0.0000
@<TRIPOS>BOND
     1    1    3 ar
     2    1    8 ar
     3    2    4 ar
     4    2    8 ar
     5    3   12 ar
     6    4   12 ar
     7    5    9 ar
     8    5   10 ar
     9    6    9 ar
    10    6   11 ar
    11    7   10 ar
    12    7   11 ar
    13    8   19 1
    14    9   15 1
    15   10   16 1
    16   11   21 1
    17   12   25 1
    18   13   19 1
    19   13   21 am
    20   13   22 2
    21   14   20 1
    22   14   23 2
    23   14   24 1
    24   17   20 1
    25   18   20 1
    26   20   25 1
    27    1   26 1
    28    2   27 1
    29    3   28 1
    30    4   29 1
    31    5   30 1
    32    6   31 1
    33    7   32 1
    34   15   33 1
    35   15   34 1
    36   15   35 1
    37   16   36 1
    38   16   37 1
    39   16   38 1
    40   17   39 1
    41   17   40 1
    42   17   41 1
    43   18   42 1
    44   18   43 1
    45   18   44 1
    46   19   45 1
    47   19   46 1
    48   21   47 1
    49   24   48 1
@<TRIPOS>MOLECULE
LIGAND
   48    49     0     0     0
SMALL
NO_CHARGES

@<TRIPOS>ATOM
      1 C1          0.5527   -4.6763    2.8294 C.ar      1 <0>         0.0000
      2 C2          0.3861   -3.6328    5.0020 C.ar      1 <0>         0.0000
      3 C3          0.3616   -3.4367    2.2193 C.ar      1 <0>         0.0000
      4 C4          0.1950   -2.3931    4.3919 C.ar      1 <0>         0.0000
      5 C5         -4.8715   -9.1291    3.4896 C.ar      1 <0>         0.0000
      6 C6         -2.9948   -7.9499    2.5281 C.ar      1 <0>         0.0000
      7 C7         -3.1061   -8.3006    4.9159 C.ar      1 <0>         0.0000
      8 C8          0.5649   -4.7745    4.2208 C.ar      1 <0>         0.0000
      9 C9         -4.2089   -8.6191    2.3732 C.ar      1 <0>         0.0000
     10 C10        -4.3202   -8.9698    4.7610 C.ar      1 <0>         0.0000
     11 C11        -2.4435   -7.7906    3.7995 C.ar      1 <0>         0.0000
     12 C12         0.1828   -2.2950    3.0005 C.ar      1 <0>         0.0000
     13 C13        -0.5237   -6.8648    5.1420 C.2       1 <0>         0.0000
     14 C14        -1.2695    0.6664    1.4655 C.2       1 <0>         0.0000
     15 C15        -4.7985   -8.7893    1.0139 C.3       1 <0>         0.0000
     16 C16        -5.0287   -9.5153    5.9546 C.3       1 <0>         0.0000
     17 C17        -2.1127   -0.6450    3.4402 C.3       1 <0>         0.0000
     18 C18        -1.9368   -1.7406    1.1608 C.3       1 <0>         0.0000
     19 C19         0.7697   -6.0997    4.8732 C.3       1 <0>         0.0000
     20 C20        -1.3523   -0.7069    2.1188 C.3       1 <0>         0.0000
     21 N1         -1.2117   -7.1118    3.9567 N.am      1 <0>         0.0000
     22 O1         -0.8586   -7.1893    6.2768 O.2       1 <0>         0.0000
     23 O2         -0.2225    1.2483    1.2072 O.2       1 <0>         0.0000
     24 O3         -2.4844    1.2043    1.1869 O.3       1 <0>         0.0000
     25 O4         -0.0032   -1.0794    2.4021 O.3       1 <0>         0.0000
     26 H1          0.6911   -5.5605    2.2130 H         1 <0>         0.0000
     27 H2          0.3940   -3.6998    6.0869 H         1 <0>         0.0000
     28 H3          0.3534   -3.3666    1.1348 H         1 <0>         0.0000
     29 H4          0.0567   -1.5076    5.0059 H         1 <0>         0.0000
     30 H5         -5.8180   -9.6509    3.3691 H         1 <0>         0.0000
     31 H6         -2.4798   -7.5528    1.6561 H         1 <0>         0.0000
     32 H7         -2.6779   -8.1778    5.9083 H         1 <0>         0.0000
     33 H8         -5.4536   -7.9431    0.7731 H         1 <0>         0.0000
     34 H9         -4.0170   -8.8538    0.2458 H         1 <0>         0.0000
     35 H10        -5.3862   -9.7142    0.9476 H         1 <0>         0.0000
     36 H11        -4.7059  -10.5447    6.1530 H         1 <0>         0.0000
     37 H12        -4.8288   -8.9096    6.8480 H         1 <0>         0.0000
     38 H13        -6.1166   -9.5141    5.8071 H         1 <0>         0.0000
     39 H14        -2.1818   -1.6244    3.9239 H         1 <0>         0.0000
     40 H15        -1.6301    0.0489    4.1376 H         1 <0>         0.0000
     41 H16        -3.1324   -0.2741    3.2836 H         1 <0>         0.0000
     42 H17        -1.9924   -2.7252    1.6396 H         1 <0>         0.0000
     43 H18        -1.3402   -1.8434    0.2490 H         1 <0>         0.0000
     44 H19        -2.9598   -1.4735    0.8729 H         1 <0>         0.0000
     45 H20         1.4192   -6.7371    4.2506 H         1 <0>         0.0000
     46 H21         1.2991   -5.9755    5.8323 H         1 <0>         0.0000
     47 H22        -0.7781   -6.7635    3.1041 H         1 <0>         0.0000
     48 H23        -2.4751    2.0890    0.7653 H         1 <0>         0.0000
@<TRIPOS>BOND
     1    1    3 ar
     2    1    8 ar
     3    2    4 ar
     4    2    8 ar
     5    3   12 ar
     6    4   12 ar
     7    5    9 ar
     8    5   10 ar
     9    6    9 ar
    10    6   11 ar
    11    7   10 ar
    12    7   11 ar
    13    8   19 1
    14    9   15 1
    15   10   16 1
    16   11   21 1
    17   12   25 1
    18   13   19 1
    19   13   21 am
    20   13   22 2
    21   14   20 1
    22   14   23 2
    23   14   24 1
    24   17   20 1
    25   18   20 1
    26   20   25 1
    27    1   26 1
    28    2   27 1
    29    3   28 1
    30    4   29 1
    31    5   30 1
    32    6   31 1
    33    7   32 1
    34   15   33 1
    35   15   34 1
    36   15   35 1
    37   16   36 1
    38   16   37 1
    39   16   38 1
    40   17   39 1
    41   17   40 1
    42   17   41 1
    43   18   42 1
    44   18   43 1
    45   18   44 1
    46   19   45 1
    47   19   46 1
    48   21   47 1
    49   24   48 1
@<TRIPOS>MOLECULE
LIGAND
   48    49     0     0     0
SMALL
NO_CHARGES

@<TRIPOS>ATOM
      1 C1          0.5527   -4.6763    2.8294 C.ar      1 <0>         0.0000
      2 C2          0.3861   -3.6328    5.0020 C.ar      1 <0>         0.0000
      3 C3          0.3616   -3.4367    2.2193 C.ar      1 <0>         0.0000
      4 C4          0.1950   -2.3931    4.3919 C.ar      1 <0>         0.0000
      5 C5         -5.1661   -7.2608    7.3896 C.ar      1 <0>         0.0000
      6 C6         -3.3551   -5.6643    7.3003 C.ar      1 <0>         0.0000
      7 C7         -3.1941   -7.7430    6.0798 C.ar      1 <0>         0.0000
      8 C8          0.5649   -4.7745    4.2208 C.ar      1 <0>         0.0000
      9 C9         -4.6161   -6.0357    7.7667 C.ar      1 <0>         0.0000
     10 C10        -4.4551   -8.1145    6.5461 C.ar      1 <0>         0.0000
     11 C11        -2.6441   -6.5179    6.4568 C.ar      1 <0>         0.0000
     12 C12         0.1828   -2.2950    3.0005 C.ar      1 <0>         0.0000
     13 C13        -0.5237   -6.8648    5.1420 C.2       1 <0>         0.0000
     14 C14         0.6826    0.9680    1.4714 C.2       1 <0>         0.0000
     15 C15        -5.3764   -5.1232    8.6687 C.3       1 <0>         0.0000
     16 C16        -5.0434   -9.4243    6.1429 C.3       1 <0>         0.0000
     17 C17         2.0468   -1.1248    1.1725 C.3       1 <0>         0.0000
     18 C18         1.8710   -0.0299    3.4523 C.3       1 <0>         0.0000
     19 C19         0.7697   -6.0997    4.8732 C.3       1 <0>         0.0000
     20 C20         1.1722   -0.3168    2.1266 C.3       1 <0>         0.0000
     21 N1         -1.3647   -6.1410    5.9836 N.am      1 <0>         0.0000
     22 O1         -0.7345   -7.9698    4.6525 O.2       1 <0>         0.0000
     23 O2         -0.4971    1.2534    1.3028 O.2       1 <0>         0.0000
     24 O3          1.6894    1.7905    1.0803 O.3       1 <0>         0.0000
     25 O4         -0.0032   -1.0794    2.4021 O.3       1 <0>         0.0000
     26 H1          0.6911   -5.5605    2.2130 H         1 <0>         0.0000
     27 H2          0.3940   -3.6998    6.0869 H         1 <0>         0.0000
     28 H3          0.3534   -3.3666    1.1348 H         1 <0>         0.0000
     29 H4          0.0567   -1.5076    5.0059 H         1 <0>         0.0000
     30 H5         -6.1493   -7.5506    7.7530 H         1 <0>         0.0000
     31 H6         -2.9280   -4.7084    7.5958 H         1 <0>         0.0000
     32 H7         -2.6415   -8.4102    5.4218 H         1 <0>         0.0000
     33 H8         -5.1369   -5.3362    9.7176 H         1 <0>         0.0000
     34 H9         -5.1381   -4.0713    8.4641 H         1 <0>         0.0000
     35 H10        -6.4594   -5.2363    8.5290 H         1 <0>         0.0000
     36 H11        -5.6281   -9.3129    5.2215 H         1 <0>         0.0000
     37 H12        -4.2621  -10.1759    5.9705 H         1 <0>         0.0000
     38 H13        -5.7009   -9.8237    6.9261 H         1 <0>         0.0000
     39 H14         2.4077   -2.0525    1.6275 H         1 <0>         0.0000
     40 H15         1.4973   -1.3815    0.2598 H         1 <0>         0.0000
     41 H16         2.9204   -0.5413    0.8593 H         1 <0>         0.0000
     42 H17         2.2196   -0.9600    3.9160 H         1 <0>         0.0000
     43 H18         1.2128    0.4754    4.1659 H         1 <0>         0.0000
     44 H19         2.7573    0.5963    3.3003 H         1 <0>         0.0000
     45 H20         1.4192   -6.7371    4.2506 H         1 <0>         0.0000
     46 H21         1.2991   -5.9755    5.8323 H         1 <0>         0.0000
     47 H22        -1.0190   -5.2355    6.2945 H         1 <0>         0.0000
     48 H23         1.4163    2.6294    0.6534 H         1 <0>         0.0000
@<TRIPOS>BOND
     1    1    3 ar
     2    1    8 ar
     3    2    4 ar
     4    2    8 ar
     5    3   12 ar
     6    4   12 ar
     7    5    9 ar
     8    5   10 ar
     9    6    9 ar
    10    6   11 ar
    11    7   10 ar
    12    7   11 ar
    13    8   19 1
    14    9   15 1
    15   10   16 1
    16   11   21 1
    17   12   25 1
    18   13   19 1
    19   13   21 am
    20   13   22 2
    21   14   20 1
    22   14   23 2
    23   14   24 1
    24   17   20 1
    25   18   20 1
    26   20   25 1
    27    1   26 1
    28    2   27 1
    29    3   28 1
    30    4   29 1
    31    5   30 1
    32    6   31 1
    33    7   32 1
    34   15   33 1
    35   15   34 1
    36   15   35 1
    37   16   36 1
    38   16   37 1
    39   16   38 1
    40   17   39 1
    41   17   40 1
    42   17   41 1
    43   18   42 1
    44   18   43 1
    45   18   44 1
    46   19   45 1
    47   19   46 1
    48   21   47 1
    49   24   48 1
@<TRIPOS>MOLECULE
LIGAND
   48    49     0     0     0
SMALL
NO_CHARGES

@<TRIPOS>ATOM
      1 C1          0.5527   -4.6763    2.8294 C.ar      1 <0>         0.0000
      2 C2          0.3861   -3.6328    5.0020 C.ar      1 <0>         0.0000
      3 C3          0.3616   -3.4367    2.2193 C.ar      1 <0>         0.0000
      4 C4          0.1950   -2.3931    4.3919 C.ar      1 <0>         0.0000
      5 C5         -4.8715   -9.1291    3.4896 C.ar      1 <0>         0.0000
      6 C6         -2.9948   -7.9499    2.5281 C.ar      1 <0>         0.0000
      7 C7         -3.1061   -8.3006    4.9159 C.ar      1 <0>         0.0000
      8 C8          0.5649   -4.7745    4.2208 C.ar      1 <0>         0.0000
      9 C9         -4.2089   -8.6191    2.3732 C.ar      1 <0>         0.0000
     10 C10        -4.3202   -8.9698    4.7610 C.ar      1 <0>         0.0000
     11 C11        -2.4435   -7.7906    3.7995 C.ar      1 <0>         0.0000
     12 C12         0.1828   -2.2950    3.0005 C.ar      1 <0>         0.0000
     13 C13        -0.5237   -6.8648    5.1420 C.2       1 <0>         0.0000
     14 C14         0.6826    0.9680    1.4714 C.2       1 <0>         0.0000
     15 C15        -4.7985   -8.7893    1.0139 C.3       1 <0>         0.0000
     16 C16        -5.0287   -9.5153    5.9546 C.3       1 <0>         0.0000
     17 C17         2.0468   -1.1248    1.1725 C.3       1 <0>         0.0000
     18 C18         1.8710   -0.0299    3.4523 C.3       1 <0>         0.0000
     19 C19         0.7697   -6.0997    4.8732 C.3       1 <0>         0.0000
     20 C20         1.1722   -0.3168    2.1266 C.3       1 <0>         0.0000
     21 N1         -1.2117   -7.1118    3.9567 N.am      1 <0>         0.0000
     22 O1         -0.8586   -7.1893    6.2768 O.2       1 <0>         0.0000
     23 O2         -0.4971    1.2534    1.3028 O.2       1 <0>         0.0000
     24 O3          1.6894    1.7905    1.0803 O.3       1 <0>         0.0000
     25 O4         -0.0032   -1.0794    2.4021 O.3       1 <0>         0.0000
     26 H1          0.6911   -5.5605    2.2130 H         1 <0>         0.0000
     27 H2          0.3940   -3.6998    6.0869 H         1 <0>         0.0000
     28 H3          0.3534   -3.3666    1.1348 H         1 <0>         0.0000
     29 H4          0.0567   -1.5076    5.0059 H         1 <0>         0.0000
     30 H5         -5.8180   -9.6509    3.3691 H         1 <0>         0.0000
     31 H6         -2.4798   -7.5528    1.6561 H         1 <0>         0.0000
     32 H7         -2.6779   -8.1778    5.9083 H         1 <0>         0.0000
     33 H8         -5.4536   -7.9431    0.7731 H         1 <0>         0.0000
     34 H9         -4.0170   -8.8538    0.2458 H         1 <0>         0.0000
     35 H10        -5.3862   -9.7142    0.9476 H         1 <0>         0.0000
     36 H11        -4.7059  -10.5447    6.1530 H         1 <0>         0.0000
     37 H12        -4.8288   -8.9096    6.8480 H         1 <0>         0.0000
     38 H13        -6.1166   -9.5141    5.8071 H         1 <0>         0.0000
     39 H14         2.4077   -2.0525    1.6275 H         1 <0>         0.0000
     40 H15         1.4973   -1.3815    0.2598 H         1 <0>         0.0000
     41 H16         2.9204   -0.5413    0.8593 H         1 <0>         0.0000
     42 H17         2.2196   -0.9600    3.9160 H         1 <0>         0.0000
     43 H18         1.2128    0.4754    4.1659 H         1 <0>         0.0000
     44 H19         2.7573    0.5963    3.3003 H         1 <0>         0.0000
     45 H20         1.4192   -6.7371    4.2506 H         1 <0>         0.0000
     46 H21         1.2991   -5.9755    5.8323 H         1 <0>         0.0000
     47 H22        -0.7781   -6.7635    3.1041 H         1 <0>         0.0000
     48 H23         1.4163    2.6294    0.6534 H         1 <0>         0.0000
@<TRIPOS>BOND
     1    1    3 ar
     2    1    8 ar
     3    2    4 ar
     4    2    8 ar
     5    3   12 ar
     6    4   12 ar
     7    5    9 ar
     8    5   10 ar
     9    6    9 ar
    10    6   11 ar
    11    7   10 ar
    12    7   11 ar
    13    8   19 1
    14    9   15 1
    15   10   16 1
    16   11   21 1
    17   12   25 1
    18   13   19 1
    19   13   21 am
    20   13   22 2
    21   14   20 1
    22   14   23 2
    23   14   24 1
    24   17   20 1
    25   18   20 1
    26   20   25 1
    27    1   26 1
    28    2   27 1
    29    3   28 1
    30    4   29 1
    31    5   30 1
    32    6   31 1
    33    7   32 1
    34   15   33 1
    35   15   34 1
    36   15   35 1
    37   16   36 1
    38   16   37 1
    39   16   38 1
    40   17   39 1
    41   17   40 1
    42   17   41 1
    43   18   42 1
    44   18   43 1
    45   18   44 1
    46   19   45 1
    47   19   46 1
    48   21   47 1
    49   24   48 1
@<TRIPOS>MOLECULE
LIGAND
   48    49     0     0     0
SMALL
NO_CHARGES

@<TRIPOS>ATOM
      1 C1          0.5527   -4.6763    2.8294 C.ar      1 <0>         0.0000
      2 C2          0.3861   -3.6328    5.0020 C.ar      1 <0>         0.0000
      3 C3          0.3616   -3.4367    2.2193 C.ar      1 <0>         0.0000
      4 C4          0.1950   -2.3931    4.3919 C.ar      1 <0>         0.0000
      5 C5         -4.1734   -6.2244    9.1702 C.ar      1 <0>         0.0000
      6 C6         -3.6114   -5.9223    6.8401 C.ar      1 <0>         0.0000
      7 C7         -1.8702   -6.3673    8.4548 C.ar      1 <0>         0.0000
      8 C8          0.5649   -4.7745    4.2208 C.ar      1 <0>         0.0000
      9 C9         -4.5665   -5.9753    7.8553 C.ar      1 <0>         0.0000
     10 C10        -2.8253   -6.4203    9.4700 C.ar      1 <0>         0.0000
     11 C11        -2.2633   -6.1182    7.1398 C.ar      1 <0>         0.0000
     12 C12         0.1828   -2.2950    3.0005 C.ar      1 <0>         0.0000
     13 C13         0.0825   -6.2356    6.2297 C.2       1 <0>         0.0000
     14 C14        -1.2695    0.6664    1.4655 C.2       1 <0>         0.0000
     15 C15        -6.0079   -5.7657    7.5350 C.3       1 <0>         0.0000
     16 C16        -2.4052   -6.6868   10.8760 C.3       1 <0>         0.0000
     17 C17        -2.1127   -0.6450    3.4402 C.3       1 <0>         0.0000
     18 C18        -1.9368   -1.7406    1.1608 C.3       1 <0>         0.0000
     19 C19         0.7697   -6.0997    4.8732 C.3       1 <0>         0.0000
     20 C20        -1.3523   -0.7069    2.1188 C.3       1 <0>         0.0000
     21 N1         -1.2943   -6.0645    6.1097 N.am      1 <0>         0.0000
     22 O1          0.7162   -6.4643    7.2550 O.2       1 <0>         0.0000
     23 O2         -0.2225    1.2483    1.2072 O.2       1 <0>         0.0000
     24 O3         -2.4844    1.2043    1.1869 O.3       1 <0>         0.0000
     25 O4         -0.0032   -1.0794    2.4021 O.3       1 <0>         0.0000
     26 H1          0.6911   -5.5605    2.2130 H         1 <0>         0.0000
     27 H2          0.3940   -3.6998    6.0869 H         1 <0>         0.0000
     28 H3          0.3534   -3.3666    1.1348 H         1 <0>         0.0000
     29 H4          0.0567   -1.5076    5.0059 H         1 <0>         0.0000
     30 H5         -4.9178   -6.2659    9.9619 H         1 <0>         0.0000
     31 H6         -3.9202   -5.7278    5.8153 H         1 <0>         0.0000
     32 H7         -0.8194   -6.5207    8.6907 H         1 <0>         0.0000
     33 H8         -6.2653   -4.7021    7.6109 H         1 <0>         0.0000
     34 H9         -6.2446   -6.1094    6.5197 H         1 <0>         0.0000
     35 H10        -6.6544   -6.3299    8.2199 H         1 <0>         0.0000
     36 H11        -2.4092   -7.7649   11.0780 H         1 <0>         0.0000
     37 H12        -1.3964   -6.3001   11.0705 H         1 <0>         0.0000
     38 H13        -3.0769   -6.1960   11.5923 H         1 <0>         0.0000
     39 H14        -2.1818   -1.6244    3.9239 H         1 <0>         0.0000
     40 H15        -1.6301    0.0489    4.1376 H         1 <0>         0.0000
     41 H16        -3.1324   -0.2741    3.2836 H         1 <0>         0.0000
     42 H17        -1.9924   -2.7252    1.6396 H         1 <0>         0.0000
     43 H18        -1.3402   -1.8434    0.2490 H         1 <0>         0.0000
     44 H19        -2.9598   -1.4735    0.8729 H         1 <0>         0.0000
     45 H20         0.4001   -6.9088    4.2218 H         1 <0>         0.0000
     46 H21         1.8458   -6.2938    5.0142 H         1 <0>         0.0000
     47 H22        -1.6445   -5.8793    5.1721 H         1 <0>         0.0000
     48 H23        -2.4751    2.0890    0.7653 H         1 <0>         0.0000
@<TRIPOS>BOND
     1    1    3 ar
     2    1    8 ar
     3    2    4 ar
     4    2    8 ar
     5    3   12 ar
     6    4   12 ar
     7    5    9 ar
     8    5   10 ar
     9    6    9 ar
    10    6   11 ar
    11    7   10 ar
    12    7   11 ar
    13    8   19 1
    14    9   15 1
    15   10   16 1
    16   11   21 1
    17   12   25 1
    18   13   19 1
    19   13   21 am
    20   13   22 2
    21   14   20 1
    22   14   23 2
    23   14   24 1
    24   17   20 1
    25   18   20 1
    26   20   25 1
    27    1   26 1
    28    2   27 1
    29    3   28 1
    30    4   29 1
    31    5   30 1
    32    6   31 1
    33    7   32 1
    34   15   33 1
    35   15   34 1
    36   15   35 1
    37   16   36 1
    38   16   37 1
    39   16   38 1
    40   17   39 1
    41   17   40 1
    42   17   41 1
    43   18   42 1
    44   18   43 1
    45   18   44 1
    46   19   45 1
    47   19   46 1
    48   21   47 1
    49   24   48 1
@<TRIPOS>MOLECULE
LIGAND
   48    49     0     0     0
SMALL
NO_CHARGES

@<TRIPOS>ATOM
      1 C1          0.5527   -4.6763    2.8294 C.ar      1 <0>         0.0000
      2 C2          0.3861   -3.6328    5.0020 C.ar      1 <0>         0.0000
      3 C3          0.3616   -3.4367    2.2193 C.ar      1 <0>         0.0000
      4 C4          0.1950   -2.3931    4.3919 C.ar      1 <0>         0.0000
      5 C5          5.5058   -4.7267    9.1859 C.ar      1 <0>         0.0000
      6 C6          4.8874   -4.6101    6.8534 C.ar      1 <0>         0.0000
      7 C7          3.3550   -5.5570    8.4635 C.ar      1 <0>         0.0000
      8 C8          0.5649   -4.7745    4.2208 C.ar      1 <0>         0.0000
      9 C9          5.8104   -4.3722    7.8718 C.ar      1 <0>         0.0000
     10 C10         4.2781   -5.3191    9.4818 C.ar      1 <0>         0.0000
     11 C11         3.6596   -5.2026    7.1493 C.ar      1 <0>         0.0000
     12 C12         0.1828   -2.2950    3.0005 C.ar      1 <0>         0.0000
     13 C13         1.4611   -6.0213    6.2321 C.2       1 <0>         0.0000
     14 C14         0.6826    0.9680    1.4714 C.2       1 <0>         0.0000
     15 C15         7.1231   -3.7390    7.5555 C.3       1 <0>         0.0000
     16 C16         3.9524   -5.6979   10.8871 C.3       1 <0>         0.0000
     17 C17         2.0468   -1.1248    1.1725 C.3       1 <0>         0.0000
     18 C18         1.8710   -0.0299    3.4523 C.3       1 <0>         0.0000
     19 C19         0.7697   -6.0997    4.8732 C.3       1 <0>         0.0000
     20 C20         1.1722   -0.3168    2.1266 C.3       1 <0>         0.0000
     21 N1          2.7231   -5.4438    6.1161 N.am      1 <0>         0.0000
     22 O1          0.9234   -6.4321    7.2554 O.2       1 <0>         0.0000
     23 O2         -0.4971    1.2534    1.3028 O.2       1 <0>         0.0000
     24 O3          1.6894    1.7905    1.0803 O.3       1 <0>         0.0000
     25 O4         -0.0032   -1.0794    2.4021 O.3       1 <0>         0.0000
     26 H1          0.6911   -5.5605    2.2130 H         1 <0>         0.0000
     27 H2          0.3940   -3.6998    6.0869 H         1 <0>         0.0000
     28 H3          0.3534   -3.3666    1.1348 H         1 <0>         0.0000
     29 H4          0.0567   -1.5076    5.0059 H         1 <0>         0.0000
     30 H5          6.2252   -4.5412    9.9801 H         1 <0>         0.0000
     31 H6          5.1270   -4.3330    5.8292 H         1 <0>         0.0000
     32 H7          2.3981   -6.0189    8.6966 H         1 <0>         0.0000
     33 H8          7.8703   -4.5064    7.3191 H         1 <0>         0.0000
     34 H9          7.0408   -3.0578    6.6986 H         1 <0>         0.0000
     35 H10         7.4918   -3.1430    8.4006 H         1 <0>         0.0000
     36 H11         3.4579   -4.8654   11.4023 H         1 <0>         0.0000
     37 H12         3.2885   -6.5715   10.9207 H         1 <0>         0.0000
     38 H13         4.8578   -5.9655   11.4476 H         1 <0>         0.0000
     39 H14         2.4077   -2.0525    1.6275 H         1 <0>         0.0000
     40 H15         1.4973   -1.3815    0.2598 H         1 <0>         0.0000
     41 H16         2.9204   -0.5413    0.8593 H         1 <0>         0.0000
     42 H17         2.2196   -0.9600    3.9160 H         1 <0>         0.0000
     43 H18         1.2128    0.4754    4.1659 H         1 <0>         0.0000
     44 H19         2.7573    0.5963    3.3003 H         1 <0>         0.0000
     45 H20        -0.1967   -6.6120    5.0121 H         1 <0>         0.0000
     46 H21         1.3690   -6.7574    4.2222 H         1 <0>         0.0000
     47 H22         3.0046   -5.1626    5.1792 H         1 <0>         0.0000
     48 H23         1.4163    2.6294    0.6534 H         1 <0>         0.0000
@<TRIPOS>BOND
     1    1    3 ar
     2    1    8 ar
     3    2    4 ar
     4    2    8 ar
     5    3   12 ar
     6    4   12 ar
     7    5    9 ar
     8    5   10 ar
     9    6    9 ar
    10    6   11 ar
    11    7   10 ar
    12    7   11 ar
    13    8   19 1
    14    9   15 1
    15   10   16 1
    16   11   21 1
    17   12   25 1
    18   13   19 1
    19   13   21 am
    20   13   22 2
    21   14   20 1
    22   14   23 2
    23   14   24 1
    24   17   20 1
    25   18   20 1
    26   20   25 1
    27    1   26 1
    28    2   27 1
    29    3   28 1
    30    4   29 1
    31    5   30 1
    32    6   31 1
    33    7   32 1
    34   15   33 1
    35   15   34 1
    36   15   35 1
    37   16   36 1
    38   16   37 1
    39   16   38 1
    40   17   39 1
    41   17   40 1
    42   17   41 1
    43   18   42 1
    44   18   43 1
    45   18   44 1
    46   19   45 1
    47   19   46 1
    48   21   47 1
    49   24   48 1
@<TRIPOS>MOLECULE
LIGAND
   48    49     0     0     0
SMALL
NO_CHARGES

@<TRIPOS>ATOM
      1 C1          0.5527   -4.6763    2.8294 C.ar      1 <0>         0.0000
      2 C2          0.3861   -3.6328    5.0020 C.ar      1 <0>         0.0000
      3 C3          0.3616   -3.4367    2.2193 C.ar      1 <0>         0.0000
      4 C4          0.1950   -2.3931    4.3919 C.ar      1 <0>         0.0000
      5 C5          5.5058   -4.7267    9.1859 C.ar      1 <0>         0.0000
      6 C6          4.8874   -4.6101    6.8534 C.ar      1 <0>         0.0000
      7 C7          3.3550   -5.5570    8.4635 C.ar      1 <0>         0.0000
      8 C8          0.5649   -4.7745    4.2208 C.ar      1 <0>         0.0000
      9 C9          5.8104   -4.3722    7.8718 C.ar      1 <0>         0.0000
     10 C10         4.2781   -5.3191    9.4818 C.ar      1 <0>         0.0000
     11 C11         3.6596   -5.2026    7.1493 C.ar      1 <0>         0.0000
     12 C12         0.1828   -2.2950    3.0005 C.ar      1 <0>         0.0000
     13 C13         1.4611   -6.0213    6.2321 C.2       1 <0>         0.0000
     14 C14        -1.2695    0.6664    1.4655 C.2       1 <0>         0.0000
     15 C15         7.1231   -3.7390    7.5555 C.3       1 <0>         0.0000
     16 C16         3.9524   -5.6979   10.8871 C.3       1 <0>         0.0000
     17 C17        -2.1127   -0.6450    3.4402 C.3       1 <0>         0.0000
     18 C18        -1.9368   -1.7406    1.1608 C.3       1 <0>         0.0000
     19 C19         0.7697   -6.0997    4.8732 C.3       1 <0>         0.0000
     20 C20        -1.3523   -0.7069    2.1188 C.3       1 <0>         0.0000
     21 N1          2.7231   -5.4438    6.1161 N.am      1 <0>         0.0000
     22 O1          0.9234   -6.4321    7.2554 O.2       1 <0>         0.0000
     23 O2         -0.2225    1.2483    1.2072 O.2       1 <0>         0.0000
     24 O3         -2.4844    1.2043    1.1869 O.3       1 <0>         0.0000
     25 O4         -0.0032   -1.0794    2.4021 O.3       1 <0>         0.0000
     26 H1          0.6911   -5.5605    2.2130 H         1 <0>         0.0000
     27 H2          0.3940   -3.6998    6.0869 H         1 <0>         0.0000
     28 H3          0.3534   -3.3666    1.1348 H         1 <0>         0.0000
     29 H4          0.0567   -1.5076    5.0059 H         1 <0>         0.0000
     30 H5          6.2252   -4.5412    9.9801 H         1 <0>         0.0000
     31 H6          5.1270   -4.3330    5.8292 H         1 <0>         0.0000
     32 H7          2.3981   -6.0189    8.6966 H         1 <0>         0.0000
     33 H8          7.8703   -4.5064    7.3191 H         1 <0>         0.0000
     34 H9          7.0408   -3.0578    6.6986 H         1 <0>         0.0000
     35 H10         7.4918   -3.1430    8.4006 H         1 <0>         0.0000
     36 H11         3.4579   -4.8654   11.4023 H         1 <0>         0.0000
     37 H12         3.2885   -6.5715   10.9207 H         1 <0>         0.0000
     38 H13         4.8578   -5.9655   11.4476 H         1 <0>         0.0000
     39 H14        -2.1818   -1.6244    3.9239 H         1 <0>         0.0000
     40 H15        -1.6301    0.0489    4.1376 H         1 <0>         0.0000
     41 H16        -3.1324   -0.2741    3.2836 H         1 <0>         0.0000
     42 H17        -1.9924   -2.7252    1.6396 H         1 <0>         0.0000
     43 H18        -1.3402   -1.8434    0.2490 H         1 <0>         0.0000
     44 H19        -2.9598   -1.4735    0.8729 H         1 <0>         0.0000
     45 H20        -0.1967   -6.6120    5.0121 H         1 <0>         0.0000
     46 H21         1.3690   -6.7574    4.2222 H         1 <0>         0.0000
     47 H22         3.0046   -5.1626    5.1792 H         1 <0>         0.0000
     48 H23        -2.4751    2.0890    0.7653 H         1 <0>         0.0000
@<TRIPOS>BOND
     1    1    3 ar
     2    1    8 ar
     3    2    4 ar
     4    2    8 ar
     5    3   12 ar
     6    4   12 ar
     7    5    9 ar
     8    5   10 ar
     9    6    9 ar
    10    6   11 ar
    11    7   10 ar
    12    7   11 ar
    13    8   19 1
    14    9   15 1
    15   10   16 1
    16   11   21 1
    17   12   25 1
    18   13   19 1
    19   13   21 am
    20   13   22 2
    21   14   20 1
    22   14   23 2
    23   14   24 1
    24   17   20 1
    25   18   20 1
    26   20   25 1
    27    1   26 1
    28    2   27 1
    29    3   28 1
    30    4   29 1
    31    5   30 1
    32    6   31 1
    33    7   32 1
    34   15   33 1
    35   15   34 1
    36   15   35 1
    37   16   36 1
    38   16   37 1
    39   16   38 1
    40   17   39 1
    41   17   40 1
    42   17   41 1
    43   18   42 1
    44   18   43 1
    45   18   44 1
    46   19   45 1
    47   19   46 1
    48   21   47 1
    49   24   48 1
@<TRIPOS>MOLECULE
LIGAND
   48    49     0     0     0
SMALL
NO_CHARGES

@<TRIPOS>ATOM
      1 C1          0.5527   -4.6763    2.8294 C.ar      1 <0>         0.0000
      2 C2          0.3861   -3.6328    5.0020 C.ar      1 <0>         0.0000
      3 C3          0.3616   -3.4367    2.2193 C.ar      1 <0>         0.0000
      4 C4          0.1950   -2.3931    4.3919 C.ar      1 <0>         0.0000
      5 C5         -4.1734   -6.2244    9.1702 C.ar      1 <0>         0.0000
      6 C6         -3.6114   -5.9223    6.8401 C.ar      1 <0>         0.0000
      7 C7         -1.8702   -6.3673    8.4548 C.ar      1 <0>         0.0000
      8 C8          0.5649   -4.7745    4.2208 C.ar      1 <0>         0.0000
      9 C9         -4.5665   -5.9753    7.8553 C.ar      1 <0>         0.0000
     10 C10        -2.8253   -6.4203    9.4700 C.ar      1 <0>         0.0000
     11 C11        -2.2633   -6.1182    7.1398 C.ar      1 <0>         0.0000
     12 C12         0.1828   -2.2950    3.0005 C.ar      1 <0>         0.0000
     13 C13         0.0825   -6.2356    6.2297 C.2       1 <0>         0.0000
     14 C14         0.6826    0.9680    1.4714 C.2       1 <0>         0.0000
     15 C15        -6.0079   -5.7657    7.5350 C.3       1 <0>         0.0000
     16 C16        -2.4052   -6.6868   10.8760 C.3       1 <0>         0.0000
     17 C17         2.0468   -1.1248    1.1725 C.3       1 <0>         0.0000
     18 C18         1.8710   -0.0299    3.4523 C.3       1 <0>         0.0000
     19 C19         0.7697   -6.0997    4.8732 C.3       1 <0>         0.0000
     20 C20         1.1722   -0.3168    2.1266 C.3       1 <0>         0.0000
     21 N1         -1.2943   -6.0645    6.1097 N.am      1 <0>         0.0000
     22 O1          0.7162   -6.4643    7.2550 O.2       1 <0>         0.0000
     23 O2         -0.4971    1.2534    1.3028 O.2       1 <0>         0.0000
     24 O3          1.6894    1.7905    1.0803 O.3       1 <0>         0.0000
     25 O4         -0.0032   -1.0794    2.4021 O.3       1 <0>         0.0000
     26 H1          0.6911   -5.5605    2.2130 H         1 <0>         0.0000
     27 H2          0.3940   -3.6998    6.0869 H         1 <0>         0.0000
     28 H3          0.3534   -3.3666    1.1348 H         1 <0>         0.0000
     29 H4          0.0567   -1.5076    5.0059 H         1 <0>         0.0000
     30 H5         -4.9178   -6.2659    9.9619 H         1 <0>         0.0000
     31 H6         -3.9202   -5.7278    5.8153 H         1 <0>         0.0000
     32 H7         -0.8194   -6.5207    8.6907 H         1 <0>         0.0000
     33 H8         -6.2653   -4.7021    7.6109 H         1 <0>         0.0000
     34 H9         -6.2446   -6.1094    6.5197 H         1 <0>         0.0000
     35 H10        -6.6544   -6.3299    8.2199 H         1 <0>         0.0000
     36 H11        -2.4092   -7.7649   11.0780 H         1 <0>         0.0000
     37 H12        -1.3964   -6.3001   11.0705 H         1 <0>         0.0000
     38 H13        -3.0769   -6.1960   11.5923 H         1 <0>         0.0000
     39 H14         2.4077   -2.0525    1.6275 H         1 <0>         0.0000
     40 H15         1.4973   -1.3815    0.2598 H         1 <0>         0.0000
     41 H16         2.9204   -0.5413    0.8593 H         1 <0>         0.0000
     42 H17         2.2196   -0.9600    3.9160 H         1 <0>         0.0000
     43 H18         1.2128    0.4754    4.1659 H         1 <0>         0.0000
     44 H19         2.7573    0.5963    3.3003 H         1 <0>         0.0000
     45 H20         0.4001   -6.9088    4.2218 H         1 <0>         0.0000
     46 H21         1.8458   -6.2938    5.0142 H         1 <0>         0.0000
     47 H22        -1.6445   -5.8793    5.1721 H         1 <0>         0.0000
     48 H23         1.4163    2.6294    0.6534 H         1 <0>         0.0000
@<TRIPOS>BOND
     1    1    3 ar
     2    1    8 ar
     3    2    4 ar
     4    2    8 ar
     5    3   12 ar
     6    4   12 ar
     7    5    9 ar
     8    5   10 ar
     9    6    9 ar
    10    6   11 ar
    11    7   10 ar
    12    7   11 ar
    13    8   19 1
    14    9   15 1
    15   10   16 1
    16   11   21 1
    17   12   25 1
    18   13   19 1
    19   13   21 am
    20   13   22 2
    21   14   20 1
    22   14   23 2
    23   14   24 1
    24   17   20 1
    25   18   20 1
    26   20   25 1
    27    1   26 1
    28    2   27 1
    29    3   28 1
    30    4   29 1
    31    5   30 1
    32    6   31 1
    33    7   32 1
    34   15   33 1
    35   15   34 1
    36   15   35 1
    37   16   36 1
    38   16   37 1
    39   16   38 1
    40   17   39 1
    41   17   40 1
    42   17   41 1
    43   18   42 1
    44   18   43 1
    45   18   44 1
    46   19   45 1
    47   19   46 1
    48   21   47 1
    49   24   48 1
@<TRIPOS>MOLECULE
LIGAND
   48    49     0     0     0
SMALL
NO_CHARGES

@<TRIPOS>ATOM
      1 C1          0.5527   -4.6763    2.8294 C.ar      1 <0>         0.0000
      2 C2          0.3861   -3.6328    5.0020 C.ar      1 <0>         0.0000
      3 C3          0.3616   -3.4367    2.2193 C.ar      1 <0>         0.0000
      4 C4          0.1950   -2.3931    4.3919 C.ar      1 <0>         0.0000
      5 C5         -3.8478   -9.1385    8.3887 C.ar      1 <0>         0.0000
      6 C6         -1.7419   -7.9620    8.5226 C.ar      1 <0>         0.0000
      7 C7         -2.8007   -8.3034    6.3780 C.ar      1 <0>         0.0000
      8 C8          0.5649   -4.7745    4.2208 C.ar      1 <0>         0.0000
      9 C9         -2.7929   -8.6326    9.1482 C.ar      1 <0>         0.0000
     10 C10        -3.8516   -8.9740    7.0036 C.ar      1 <0>         0.0000
     11 C11        -1.7458   -7.7974    7.1375 C.ar      1 <0>         0.0000
     12 C12         0.1828   -2.2950    3.0005 C.ar      1 <0>         0.0000
     13 C13        -0.5237   -6.8648    5.1420 C.2       1 <0>         0.0000
     14 C14        -2.0625   -0.6845    3.4660 C.2       1 <0>         0.0000
     15 C15        -2.7888   -8.8088   10.6292 C.3       1 <0>         0.0000
     16 C16        -4.9797   -9.5149    6.1917 C.3       1 <0>         0.0000
     17 C17        -1.9508   -1.7648    1.1964 C.3       1 <0>         0.0000
     18 C18        -1.3358    0.6783    1.4794 C.3       1 <0>         0.0000
     19 C19         0.7697   -6.0997    4.8732 C.3       1 <0>         0.0000
     20 C20        -1.3523   -0.7069    2.1188 C.3       1 <0>         0.0000
     21 N1         -0.6795   -7.1169    6.5027 N.am      1 <0>         0.0000
     22 O1         -1.2838   -7.1879    4.2348 O.2       1 <0>         0.0000
     23 O2         -2.9939   -1.4204    3.7701 O.2       1 <0>         0.0000
     24 O3         -1.5637    0.2433    4.3224 O.3       1 <0>         0.0000
     25 O4         -0.0032   -1.0794    2.4021 O.3       1 <0>         0.0000
     26 H1          0.6911   -5.5605    2.2130 H         1 <0>         0.0000
     27 H2          0.3940   -3.6998    6.0869 H         1 <0>         0.0000
     28 H3          0.3534   -3.3666    1.1348 H         1 <0>         0.0000
     29 H4          0.0567   -1.5076    5.0059 H         1 <0>         0.0000
     30 H5         -4.6673   -9.6614    8.8763 H         1 <0>         0.0000
     31 H6         -0.9202   -7.5683    9.1168 H         1 <0>         0.0000
     32 H7         -2.8059   -8.1759    5.2977 H         1 <0>         0.0000
     33 H8         -2.2837   -9.7437   10.9012 H         1 <0>         0.0000
     34 H9         -2.2740   -7.9774   11.1279 H         1 <0>         0.0000
     35 H10        -3.8105   -8.8358   11.0300 H         1 <0>         0.0000
     36 H11        -5.7724   -8.7635    6.0909 H         1 <0>         0.0000
     37 H12        -4.6448   -9.8042    5.1871 H         1 <0>         0.0000
     38 H13        -5.4086  -10.4134    6.6544 H         1 <0>         0.0000
     39 H14        -1.4518   -1.7947    0.2228 H         1 <0>         0.0000
     40 H15        -1.8831   -2.7612    1.6475 H         1 <0>         0.0000
     41 H16        -3.0157   -1.5703    1.0232 H         1 <0>         0.0000
     42 H17        -0.8229    0.6522    0.5109 H         1 <0>         0.0000
     43 H18        -0.8300    1.4179    2.1079 H         1 <0>         0.0000
     44 H19        -2.3546    1.0324    1.2855 H         1 <0>         0.0000
     45 H20         1.4192   -6.7371    4.2506 H         1 <0>         0.0000
     46 H21         1.2991   -5.9755    5.8323 H         1 <0>         0.0000
     47 H22         0.0595   -6.7716    7.1116 H         1 <0>         0.0000
     48 H23        -1.9938    0.2903    5.2017 H         1 <0>         0.0000
@<TRIPOS>BOND
     1    1    3 ar
     2    1    8 ar
     3    2    4 ar
     4    2    8 ar
     5    3   12 ar
     6    4   12 ar
     7    5    9 ar
     8    5   10 ar
     9    6    9 ar
    10    6   11 ar
    11    7   10 ar
    12    7   11 ar
    13    8   19 1
    14    9   15 1
    15   10   16 1
    16   11   21 1
    17   12   25 1
    18   13   19 1
    19   13   21 am
    20   13   22 2
    21   14   20 1
    22   14   23 2
    23   14   24 1
    24   17   20 1
    25   18   20 1
    26   20   25 1
    27    1   26 1
    28    2   27 1
    29    3   28 1
    30    4   29 1
    31    5   30 1
    32    6   31 1
    33    7   32 1
    34   15   33 1
    35   15   34 1
    36   15   35 1
    37   16   36 1
    38   16   37 1
    39   16   38 1
    40   17   39 1
    41   17   40 1
    42   17   41 1
    43   18   42 1
    44   18   43 1
    45   18   44 1
    46   19   45 1
    47   19   46 1
    48   21   47 1
    49   24   48 1
@<TRIPOS>MOLECULE
LIGAND
   48    49     0     0     0
SMALL
NO_CHARGES

@<TRIPOS>ATOM
      1 C1          0.5527   -4.6763    2.8294 C.ar      1 <0>         0.0000
      2 C2          0.3861   -3.6328    5.0020 C.ar      1 <0>         0.0000
      3 C3          0.3616   -3.4367    2.2193 C.ar      1 <0>         0.0000
      4 C4          0.1950   -2.3931    4.3919 C.ar      1 <0>         0.0000
      5 C5         -3.5531  -11.0068    4.4888 C.ar      1 <0>         0.0000
      6 C6         -1.3817  -10.2476    3.7504 C.ar      1 <0>         0.0000
      7 C7         -2.7127   -8.8610    5.2141 C.ar      1 <0>         0.0000
      8 C8          0.5649   -4.7745    4.2208 C.ar      1 <0>         0.0000
      9 C9         -2.3856  -11.2160    3.7547 C.ar      1 <0>         0.0000
     10 C10        -3.7167   -9.8293    5.2184 C.ar      1 <0>         0.0000
     11 C11        -1.5452   -9.0701    4.4801 C.ar      1 <0>         0.0000
     12 C12         0.1828   -2.2950    3.0005 C.ar      1 <0>         0.0000
     13 C13        -0.5237   -6.8648    5.1420 C.2       1 <0>         0.0000
     14 C14        -2.0625   -0.6845    3.4660 C.2       1 <0>         0.0000
     15 C15        -2.2109  -12.4749    2.9745 C.3       1 <0>         0.0000
     16 C16        -4.9650   -9.6059    6.0034 C.3       1 <0>         0.0000
     17 C17        -1.9508   -1.7648    1.1964 C.3       1 <0>         0.0000
     18 C18        -1.3358    0.6783    1.4794 C.3       1 <0>         0.0000
     19 C19         0.7697   -6.0997    4.8732 C.3       1 <0>         0.0000
     20 C20        -1.3523   -0.7069    2.1188 C.3       1 <0>         0.0000
     21 N1         -0.5265   -8.0877    4.4758 N.am      1 <0>         0.0000
     22 O1         -1.4079   -6.4075    5.8591 O.2       1 <0>         0.0000
     23 O2         -2.9939   -1.4204    3.7701 O.2       1 <0>         0.0000
     24 O3         -1.5637    0.2433    4.3224 O.3       1 <0>         0.0000
     25 O4         -0.0032   -1.0794    2.4021 O.3       1 <0>         0.0000
     26 H1          0.6911   -5.5605    2.2130 H         1 <0>         0.0000
     27 H2          0.3940   -3.6998    6.0869 H         1 <0>         0.0000
     28 H3          0.3534   -3.3666    1.1348 H         1 <0>         0.0000
     29 H4          0.0567   -1.5076    5.0059 H         1 <0>         0.0000
     30 H5         -4.3360  -11.7617    4.4923 H         1 <0>         0.0000
     31 H6         -0.4720  -10.4127    3.1771 H         1 <0>         0.0000
     32 H7         -2.8423   -7.9436    5.7841 H         1 <0>         0.0000
     33 H8         -2.6005  -12.3506    1.9566 H         1 <0>         0.0000
     34 H9         -1.1529  -12.7599    2.9096 H         1 <0>         0.0000
     35 H10        -2.7373  -13.3137    3.4485 H         1 <0>         0.0000
     36 H11        -4.8502   -9.9952    7.0224 H         1 <0>         0.0000
     37 H12        -5.2114   -8.5380    6.0647 H         1 <0>         0.0000
     38 H13        -5.8243  -10.1037    5.5354 H         1 <0>         0.0000
     39 H14        -1.4518   -1.7947    0.2228 H         1 <0>         0.0000
     40 H15        -1.8831   -2.7612    1.6475 H         1 <0>         0.0000
     41 H16        -3.0157   -1.5703    1.0232 H         1 <0>         0.0000
     42 H17        -0.8229    0.6522    0.5109 H         1 <0>         0.0000
     43 H18        -0.8300    1.4179    2.1079 H         1 <0>         0.0000
     44 H19        -2.3546    1.0324    1.2855 H         1 <0>         0.0000
     45 H20         1.4192   -6.7371    4.2506 H         1 <0>         0.0000
     46 H21         1.2991   -5.9755    5.8323 H         1 <0>         0.0000
     47 H22         0.3003   -8.2996    3.9212 H         1 <0>         0.0000
     48 H23        -1.9938    0.2903    5.2017 H         1 <0>         0.0000
@<TRIPOS>BOND
     1    1    3 ar
     2    1    8 ar
     3    2    4 ar
     4    2    8 ar
     5    3   12 ar
     6    4   12 ar
     7    5    9 ar
     8    5   10 ar
     9    6    9 ar
    10    6   11 ar
    11    7   10 ar
    12    7   11 ar
    13    8   19 1
    14    9   15 1
    15   10   16 1
    16   11   21 1
    17   12   25 1
    18   13   19 1
    19   13   21 am
    20   13   22 2
    21   14   20 1
    22   14   23 2
    23   14   24 1
    24   17   20 1
    25   18   20 1
    26   20   25 1
    27    1   26 1
    28    2   27 1
    29    3   28 1
    30    4   29 1
    31    5   30 1
    32    6   31 1
    33    7   32 1
    34   15   33 1
    35   15   34 1
    36   15   35 1
    37   16   36 1
    38   16   37 1
    39   16   38 1
    40   17   39 1
    41   17   40 1
    42   17   41 1
    43   18   42 1
    44   18   43 1
    45   18   44 1
    46   19   45 1
    47   19   46 1
    48   21   47 1
    49   24   48 1
@<TRIPOS>MOLECULE
LIGAND
   48    49     0     0     0
SMALL
NO_CHARGES

@<TRIPOS>ATOM
      1 C1          0.5527   -4.6763    2.8294 C.ar      1 <0>         0.0000
      2 C2          0.3861   -3.6328    5.0020 C.ar      1 <0>         0.0000
      3 C3          0.3616   -3.4367    2.2193 C.ar      1 <0>         0.0000
      4 C4          0.1950   -2.3931    4.3919 C.ar      1 <0>         0.0000
      5 C5         -3.8478   -9.1385    8.3887 C.ar      1 <0>         0.0000
      6 C6         -1.7419   -7.9620    8.5226 C.ar      1 <0>         0.0000
      7 C7         -2.8007   -8.3034    6.3780 C.ar      1 <0>         0.0000
      8 C8          0.5649   -4.7745    4.2208 C.ar      1 <0>         0.0000
      9 C9         -2.7929   -8.6326    9.1482 C.ar      1 <0>         0.0000
     10 C10        -3.8516   -8.9740    7.0036 C.ar      1 <0>         0.0000
     11 C11        -1.7458   -7.7974    7.1375 C.ar      1 <0>         0.0000
     12 C12         0.1828   -2.2950    3.0005 C.ar      1 <0>         0.0000
     13 C13        -0.5237   -6.8648    5.1420 C.2       1 <0>         0.0000
     14 C14        -1.6373   -1.2338    0.7185 C.2       1 <0>         0.0000
     15 C15        -2.7888   -8.8088   10.6292 C.3       1 <0>         0.0000
     16 C16        -4.9797   -9.5149    6.1917 C.3       1 <0>         0.0000
     17 C17        -1.4417    0.8156    2.1650 C.3       1 <0>         0.0000
     18 C18        -2.2538   -1.3729    3.1542 C.3       1 <0>         0.0000
     19 C19         0.7697   -6.0997    4.8732 C.3       1 <0>         0.0000
     20 C20        -1.3523   -0.7069    2.1188 C.3       1 <0>         0.0000
     21 N1         -0.6795   -7.1169    6.5027 N.am      1 <0>         0.0000
     22 O1         -1.2838   -7.1879    4.2348 O.2       1 <0>         0.0000
     23 O2         -0.7833   -1.4088   -0.1426 O.2       1 <0>         0.0000
     24 O3         -2.9506   -1.4995    0.5001 O.3       1 <0>         0.0000
     25 O4         -0.0032   -1.0794    2.4021 O.3       1 <0>         0.0000
     26 H1          0.6911   -5.5605    2.2130 H         1 <0>         0.0000
     27 H2          0.3940   -3.6998    6.0869 H         1 <0>         0.0000
     28 H3          0.3534   -3.3666    1.1348 H         1 <0>         0.0000
     29 H4          0.0567   -1.5076    5.0059 H         1 <0>         0.0000
     30 H5         -4.6673   -9.6614    8.8763 H         1 <0>         0.0000
     31 H6         -0.9202   -7.5683    9.1168 H         1 <0>         0.0000
     32 H7         -2.8059   -8.1759    5.2977 H         1 <0>         0.0000
     33 H8         -2.2837   -9.7437   10.9012 H         1 <0>         0.0000
     34 H9         -2.2740   -7.9774   11.1279 H         1 <0>         0.0000
     35 H10        -3.8105   -8.8358   11.0300 H         1 <0>         0.0000
     36 H11        -5.7724   -8.7635    6.0909 H         1 <0>         0.0000
     37 H12        -4.6448   -9.8042    5.1871 H         1 <0>         0.0000
     38 H13        -5.4086  -10.4134    6.6544 H         1 <0>         0.0000
     39 H14        -1.2394    1.2116    3.1650 H         1 <0>         0.0000
     40 H15        -0.7316    1.2709    1.4655 H         1 <0>         0.0000
     41 H16        -2.4399    1.1545    1.8641 H         1 <0>         0.0000
     42 H17        -2.0415   -0.9875    4.1583 H         1 <0>         0.0000
     43 H18        -2.1250   -2.4595    3.1769 H         1 <0>         0.0000
     44 H19        -3.3088   -1.1567    2.9518 H         1 <0>         0.0000
     45 H20         1.4192   -6.7371    4.2506 H         1 <0>         0.0000
     46 H21         1.2991   -5.9755    5.8323 H         1 <0>         0.0000
     47 H22         0.0595   -6.7716    7.1116 H         1 <0>         0.0000
     48 H23        -3.1766   -1.8408   -0.3903 H         1 <0>         0.0000
@<TRIPOS>BOND
     1    1    3 ar
     2    1    8 ar
     3    2    4 ar
     4    2    8 ar
     5    3   12 ar
     6    4   12 ar
     7    5    9 ar
     8    5   10 ar
     9    6    9 ar
    10    6   11 ar
    11    7   10 ar
    12    7   11 ar
    13    8   19 1
    14    9   15 1
    15   10   16 1
    16   11   21 1
    17   12   25 1
    18   13   19 1
    19   13   21 am
    20   13   22 2
    21   14   20 1
    22   14   23 2
    23   14   24 1
    24   17   20 1
    25   18   20 1
    26   20   25 1
    27    1   26 1
    28    2   27 1
    29    3   28 1
    30    4   29 1
    31    5   30 1
    32    6   31 1
    33    7   32 1
    34   15   33 1
    35   15   34 1
    36   15   35 1
    37   16   36 1
    38   16   37 1
    39   16   38 1
    40   17   39 1
    41   17   40 1
    42   17   41 1
    43   18   42 1
    44   18   43 1
    45   18   44 1
    46   19   45 1
    47   19   46 1
    48   21   47 1
    49   24   48 1
@<TRIPOS>MOLECULE
LIGAND
   48    49     0     0     0
SMALL
NO_CHARGES

@<TRIPOS>ATOM
      1 C1          0.5527   -4.6763    2.8294 C.ar      1 <0>         0.0000
      2 C2          0.3861   -3.6328    5.0020 C.ar      1 <0>         0.0000
      3 C3          0.3616   -3.4367    2.2193 C.ar      1 <0>         0.0000
      4 C4          0.1950   -2.3931    4.3919 C.ar      1 <0>         0.0000
      5 C5         -3.5531  -11.0068    4.4888 C.ar      1 <0>         0.0000
      6 C6         -1.3817  -10.2476    3.7504 C.ar      1 <0>         0.0000
      7 C7         -2.7127   -8.8610    5.2141 C.ar      1 <0>         0.0000
      8 C8          0.5649   -4.7745    4.2208 C.ar      1 <0>         0.0000
      9 C9         -2.3856  -11.2160    3.7547 C.ar      1 <0>         0.0000
     10 C10        -3.7167   -9.8293    5.2184 C.ar      1 <0>         0.0000
     11 C11        -1.5452   -9.0701    4.4801 C.ar      1 <0>         0.0000
     12 C12         0.1828   -2.2950    3.0005 C.ar      1 <0>         0.0000
     13 C13        -0.5237   -6.8648    5.1420 C.2       1 <0>         0.0000
     14 C14        -1.6373   -1.2338    0.7185 C.2       1 <0>         0.0000
     15 C15        -2.2109  -12.4749    2.9745 C.3       1 <0>         0.0000
     16 C16        -4.9650   -9.6059    6.0034 C.3       1 <0>         0.0000
     17 C17        -1.4417    0.8156    2.1650 C.3       1 <0>         0.0000
     18 C18        -2.2538   -1.3729    3.1542 C.3       1 <0>         0.0000
     19 C19         0.7697   -6.0997    4.8732 C.3       1 <0>         0.0000
     20 C20        -1.3523   -0.7069    2.1188 C.3       1 <0>         0.0000
     21 N1         -0.5265   -8.0877    4.4758 N.am      1 <0>         0.0000
     22 O1         -1.4079   -6.4075    5.8591 O.2       1 <0>         0.0000
     23 O2         -0.7833   -1.4088   -0.1426 O.2       1 <0>         0.0000
     24 O3         -2.9506   -1.4995    0.5001 O.3       1 <0>         0.0000
     25 O4         -0.0032   -1.0794    2.4021 O.3       1 <0>         0.0000
     26 H1          0.6911   -5.5605    2.2130 H         1 <0>         0.0000
     27 H2          0.3940   -3.6998    6.0869 H         1 <0>         0.0000
     28 H3          0.3534   -3.3666    1.1348 H         1 <0>         0.0000
     29 H4          0.0567   -1.5076    5.0059 H         1 <0>         0.0000
     30 H5         -4.3360  -11.7617    4.4923 H         1 <0>         0.0000
     31 H6         -0.4720  -10.4127    3.1771 H         1 <0>         0.0000
     32 H7         -2.8423   -7.9436    5.7841 H         1 <0>         0.0000
     33 H8         -2.6005  -12.3506    1.9566 H         1 <0>         0.0000
     34 H9         -1.1529  -12.7599    2.9096 H         1 <0>         0.0000
     35 H10        -2.7373  -13.3137    3.4485 H         1 <0>         0.0000
     36 H11        -4.8502   -9.9952    7.0224 H         1 <0>         0.0000
     37 H12        -5.2114   -8.5380    6.0647 H         1 <0>         0.0000
     38 H13        -5.8243  -10.1037    5.5354 H         1 <0>         0.0000
     39 H14        -1.2394    1.2116    3.1650 H         1 <0>         0.0000
     40 H15        -0.7316    1.2709    1.4655 H         1 <0>         0.0000
     41 H16        -2.4399    1.1545    1.8641 H         1 <0>         0.0000
     42 H17        -2.0415   -0.9875    4.1583 H         1 <0>         0.0000
     43 H18        -2.1250   -2.4595    3.1769 H         1 <0>         0.0000
     44 H19        -3.3088   -1.1567    2.9518 H         1 <0>         0.0000
     45 H20         1.4192   -6.7371    4.2506 H         1 <0>         0.0000
     46 H21         1.2991   -5.9755    5.8323 H         1 <0>         0.0000
     47 H22         0.3003   -8.2996    3.9212 H         1 <0>         0.0000
     48 H23        -3.1766   -1.8408   -0.3903 H         1 <0>         0.0000
@<TRIPOS>BOND
     1    1    3 ar
     2    1    8 ar
     3    2    4 ar
     4    2    8 ar
     5    3   12 ar
     6    4   12 ar
     7    5    9 ar
     8    5   10 ar
     9    6    9 ar
    10    6   11 ar
    11    7   10 ar
    12    7   11 ar
    13    8   19 1
    14    9   15 1
    15   10   16 1
    16   11   21 1
    17   12   25 1
    18   13   19 1
    19   13   21 am
    20   13   22 2
    21   14   20 1
    22   14   23 2
    23   14   24 1
    24   17   20 1
    25   18   20 1
    26   20   25 1
    27    1   26 1
    28    2   27 1
    29    3   28 1
    30    4   29 1
    31    5   30 1
    32    6   31 1
    33    7   32 1
    34   15   33 1
    35   15   34 1
    36   15   35 1
    37   16   36 1
    38   16   37 1
    39   16   38 1
    40   17   39 1
    41   17   40 1
    42   17   41 1
    43   18   42 1
    44   18   43 1
    45   18   44 1
    46   19   45 1
    47   19   46 1
    48   21   47 1
    49   24   48 1
