@<TRIPOS>MOLECULE
LIGAND
   50    49     0     0     0
SMALL
NO_CHARGES

@<TRIPOS>ATOM
      1 C1          6.2227   -3.5568   -1.6421 C.2       1 <0>         0.0000
      2 C2          4.7609   -2.3304    1.0158 C.2       1 <0>         0.0000
      3 C3          1.6238   -2.1763    1.4428 C.2       1 <0>         0.0000
      4 C4          4.8998   -3.3220    4.5808 C.3       1 <0>         0.0000
      5 C5          5.9126   -1.1117    5.1647 C.3       1 <0>         0.0000
      6 C6          2.6382   -4.8237   -1.2732 C.3       1 <0>         0.0000
      7 C7          1.4139   -5.1834    0.8654 C.3       1 <0>         0.0000
      8 C8          0.3871   -3.7862   -0.9377 C.3       1 <0>         0.0000
      9 C9          0.0532   -0.2939    1.7895 C.3       1 <0>         0.0000
     10 C10         6.4405   -2.1272    2.9267 C.3       1 <0>         0.0000
     11 C11         7.1342   -3.0688    0.6654 C.3       1 <0>         0.0000
     12 C12         5.9953   -2.9363    1.6910 C.3       1 <0>         0.0000
     13 C13         2.4245   -2.8999    0.3599 C.3       1 <0>         0.0000
     14 C14         5.3645   -1.9750    4.0244 C.3       1 <0>         0.0000
     15 C15         1.7114   -4.1488   -0.2382 C.3       1 <0>         0.0000
     16 N1          0.8675   -1.1285    0.9389 N.am      1 <0>         0.0000
     17 N2          3.6959   -3.2182    0.9688 N.am      1 <0>         0.0000
     18 N3          6.8025   -3.9159   -0.4486 N.am      1 <0>         0.0000
     19 O1          7.1154   -5.2494   -0.2706 O.3       1 <0>         0.0000
     20 O2          5.8799   -2.4252   -1.9714 O.2       1 <0>         0.0000
     21 O3          4.7482   -1.1914    0.5542 O.2       1 <0>         0.0000
     22 O4          1.6741   -2.4892    2.6314 O.2       1 <0>         0.0000
     23 H1          6.0743   -4.4054   -2.3331 H         1 <0>         0.0000
     24 H2          5.7423   -3.8772    5.0075 H         1 <0>         0.0000
     25 H3          4.4501   -3.9417    3.7978 H         1 <0>         0.0000
     26 H4          4.1642   -3.1925    5.3800 H         1 <0>         0.0000
     27 H5          6.7922   -1.5734    5.6261 H         1 <0>         0.0000
     28 H6          6.2016   -0.1209    4.7985 H         1 <0>         0.0000
     29 H7          5.1564   -0.9697    5.9440 H         1 <0>         0.0000
     30 H8          2.8872   -4.1345   -2.0879 H         1 <0>         0.0000
     31 H9          2.1738   -5.7124   -1.7140 H         1 <0>         0.0000
     32 H10         3.5794   -5.1449   -0.8119 H         1 <0>         0.0000
     33 H11         0.7565   -4.7621    1.6349 H         1 <0>         0.0000
     34 H12         2.3282   -5.5113    1.3711 H         1 <0>         0.0000
     35 H13         0.9158   -6.0685    0.4541 H         1 <0>         0.0000
     36 H14        -0.3050   -3.3025   -0.2384 H         1 <0>         0.0000
     37 H15        -0.1179   -4.6740   -1.3329 H         1 <0>         0.0000
     38 H16         0.5457   -3.0900   -1.7676 H         1 <0>         0.0000
     39 H17        -0.9522   -0.7139    1.8767 H         1 <0>         0.0000
     40 H18        -0.0213    0.7135    1.3710 H         1 <0>         0.0000
     41 H19         0.4945   -0.2269    2.7876 H         1 <0>         0.0000
     42 H20         7.3251   -2.6069    3.3666 H         1 <0>         0.0000
     43 H21         6.7588   -1.1249    2.6110 H         1 <0>         0.0000
     44 H22         7.3992   -2.0872    0.2584 H         1 <0>         0.0000
     45 H23         8.0331   -3.4907    1.1269 H         1 <0>         0.0000
     46 H24         5.7385   -3.9535    2.0094 H         1 <0>         0.0000
     47 H25         2.6549   -2.1876   -0.4426 H         1 <0>         0.0000
     48 H26         4.4913   -1.4577    3.6101 H         1 <0>         0.0000
     49 H27         0.8872   -0.9429   -0.0594 H         1 <0>         0.0000
     50 H28         3.8157   -4.1378    1.3829 H         1 <0>         0.0000
@<TRIPOS>BOND
     1    1   18 am
     2    1   20 2
     3    2   12 1
     4    2   17 am
     5    2   21 2
     6    3   13 1
     7    3   16 am
     8    3   22 2
     9    4   14 1
    10    5   14 1
    11    6   15 1
    12    7   15 1
    13    8   15 1
    14    9   16 1
    15   10   12 1
    16   10   14 1
    17   11   12 1
    18   11   18 1
    19   13   15 1
    20   13   17 1
    21   18   19 1
    22    1   23 1
    23    4   24 1
    24    4   25 1
    25    4   26 1
    26    5   27 1
    27    5   28 1
    28    5   29 1
    29    6   30 1
    30    6   31 1
    31    6   32 1
    32    7   33 1
    33    7   34 1
    34    7   35 1
    35    8   36 1
    36    8   37 1
    37    8   38 1
    38    9   39 1
    39    9   40 1
    40    9   41 1
    41   10   42 1
    42   10   43 1
    43   11   44 1
    44   11   45 1
    45   12   46 1
    46   13   47 1
    47   14   48 1
    48   16   49 1
    49   17   50 1
@<TRIPOS>MOLECULE
LIGAND
   50    49     0     0     0
SMALL
NO_CHARGES

@<TRIPOS>ATOM
      1 C1          7.5793   -4.4967    4.2605 C.2       1 <0>         0.0000
      2 C2          4.7609   -2.3304    1.0158 C.2       1 <0>         0.0000
      3 C3          1.6238   -2.1763    1.4428 C.2       1 <0>         0.0000
      4 C4          7.9668   -2.9805   -0.7195 C.3       1 <0>         0.0000
      5 C5          7.2752   -5.3485   -1.1277 C.3       1 <0>         0.0000
      6 C6          2.6382   -4.8237   -1.2732 C.3       1 <0>         0.0000
      7 C7          1.4139   -5.1834    0.8654 C.3       1 <0>         0.0000
      8 C8          0.3871   -3.7862   -0.9377 C.3       1 <0>         0.0000
      9 C9          0.0532   -0.2939    1.7895 C.3       1 <0>         0.0000
     10 C10         6.4903   -4.2069    0.9698 C.3       1 <0>         0.0000
     11 C11         5.6912   -3.2135    3.1734 C.3       1 <0>         0.0000
     12 C12         5.9953   -2.9363    1.6910 C.3       1 <0>         0.0000
     13 C13         2.4245   -2.8999    0.3599 C.3       1 <0>         0.0000
     14 C14         6.8518   -4.0083   -0.5189 C.3       1 <0>         0.0000
     15 C15         1.7114   -4.1488   -0.2382 C.3       1 <0>         0.0000
     16 N1          0.8675   -1.1285    0.9389 N.am      1 <0>         0.0000
     17 N2          3.6959   -3.2182    0.9688 N.am      1 <0>         0.0000
     18 N3          6.8729   -3.3510    3.9817 N.am      1 <0>         0.0000
     19 O1          7.3330   -2.1714    4.5335 O.3       1 <0>         0.0000
     20 O2          7.3180   -5.6268    3.8588 O.2       1 <0>         0.0000
     21 O3          4.7482   -1.1914    0.5542 O.2       1 <0>         0.0000
     22 O4          1.6741   -2.4892    2.6314 O.2       1 <0>         0.0000
     23 H1          8.4551   -4.3273    4.9116 H         1 <0>         0.0000
     24 H2          8.8753   -3.2848   -0.1883 H         1 <0>         0.0000
     25 H3          7.6713   -1.9951   -0.3441 H         1 <0>         0.0000
     26 H4          8.2323   -2.8793   -1.7758 H         1 <0>         0.0000
     27 H5          8.1599   -5.7527   -0.6240 H         1 <0>         0.0000
     28 H6          6.4698   -6.0859   -1.0440 H         1 <0>         0.0000
     29 H7          7.5125   -5.2358   -2.1909 H         1 <0>         0.0000
     30 H8          2.8872   -4.1345   -2.0879 H         1 <0>         0.0000
     31 H9          2.1738   -5.7124   -1.7140 H         1 <0>         0.0000
     32 H10         3.5794   -5.1449   -0.8119 H         1 <0>         0.0000
     33 H11         0.7565   -4.7621    1.6349 H         1 <0>         0.0000
     34 H12         2.3282   -5.5113    1.3711 H         1 <0>         0.0000
     35 H13         0.9158   -6.0685    0.4541 H         1 <0>         0.0000
     36 H14        -0.3050   -3.3025   -0.2384 H         1 <0>         0.0000
     37 H15        -0.1179   -4.6740   -1.3329 H         1 <0>         0.0000
     38 H16         0.5457   -3.0900   -1.7676 H         1 <0>         0.0000
     39 H17        -0.9522   -0.7139    1.8767 H         1 <0>         0.0000
     40 H18        -0.0213    0.7135    1.3710 H         1 <0>         0.0000
     41 H19         0.4945   -0.2269    2.7876 H         1 <0>         0.0000
     42 H20         7.3727   -4.5944    1.4964 H         1 <0>         0.0000
     43 H21         5.7222   -4.9884    1.0394 H         1 <0>         0.0000
     44 H22         5.0986   -2.3982    3.6018 H         1 <0>         0.0000
     45 H23         5.1177   -4.1388    3.2917 H         1 <0>         0.0000
     46 H24         6.7931   -2.1847    1.6686 H         1 <0>         0.0000
     47 H25         2.6549   -2.1876   -0.4426 H         1 <0>         0.0000
     48 H26         5.9671   -3.6628   -1.0661 H         1 <0>         0.0000
     49 H27         0.8872   -0.9429   -0.0594 H         1 <0>         0.0000
     50 H28         3.8157   -4.1378    1.3829 H         1 <0>         0.0000
@<TRIPOS>BOND
     1    1   18 am
     2    1   20 2
     3    2   12 1
     4    2   17 am
     5    2   21 2
     6    3   13 1
     7    3   16 am
     8    3   22 2
     9    4   14 1
    10    5   14 1
    11    6   15 1
    12    7   15 1
    13    8   15 1
    14    9   16 1
    15   10   12 1
    16   10   14 1
    17   11   12 1
    18   11   18 1
    19   13   15 1
    20   13   17 1
    21   18   19 1
    22    1   23 1
    23    4   24 1
    24    4   25 1
    25    4   26 1
    26    5   27 1
    27    5   28 1
    28    5   29 1
    29    6   30 1
    30    6   31 1
    31    6   32 1
    32    7   33 1
    33    7   34 1
    34    7   35 1
    35    8   36 1
    36    8   37 1
    37    8   38 1
    38    9   39 1
    39    9   40 1
    40    9   41 1
    41   10   42 1
    42   10   43 1
    43   11   44 1
    44   11   45 1
    45   12   46 1
    46   13   47 1
    47   14   48 1
    48   16   49 1
    49   17   50 1
@<TRIPOS>MOLECULE
LIGAND
   50    49     0     0     0
SMALL
NO_CHARGES

@<TRIPOS>ATOM
      1 C1          9.0094   -4.5043    1.6394 C.2       1 <0>         0.0000
      2 C2          4.7609   -2.3304    1.0158 C.2       1 <0>         0.0000
      3 C3          1.6238   -2.1763    1.4428 C.2       1 <0>         0.0000
      4 C4          5.5916   -1.8934    4.5978 C.3       1 <0>         0.0000
      5 C5          7.0929    0.0222    4.0244 C.3       1 <0>         0.0000
      6 C6          2.6382   -4.8237   -1.2732 C.3       1 <0>         0.0000
      7 C7          1.4139   -5.1834    0.8654 C.3       1 <0>         0.0000
      8 C8          0.3871   -3.7862   -0.9377 C.3       1 <0>         0.0000
      9 C9          0.0532   -0.2939    1.7895 C.3       1 <0>         0.0000
     10 C10         6.8665   -1.8668    2.3816 C.3       1 <0>         0.0000
     11 C11         6.8055   -3.7427    0.6616 C.3       1 <0>         0.0000
     12 C12         5.9953   -2.9363    1.6910 C.3       1 <0>         0.0000
     13 C13         2.4245   -2.8999    0.3599 C.3       1 <0>         0.0000
     14 C14         6.1374   -1.0321    3.4575 C.3       1 <0>         0.0000
     15 C15         1.7114   -4.1488   -0.2382 C.3       1 <0>         0.0000
     16 N1          0.8675   -1.1285    0.9389 N.am      1 <0>         0.0000
     17 N2          3.6959   -3.2182    0.9688 N.am      1 <0>         0.0000
     18 N3          7.7018   -4.6947    1.2608 N.am      1 <0>         0.0000
     19 O1          7.1560   -5.9460    1.4704 O.3       1 <0>         0.0000
     20 O2          9.6534   -3.4652    1.5292 O.2       1 <0>         0.0000
     21 O3          4.7482   -1.1914    0.5542 O.2       1 <0>         0.0000
     22 O4          1.6741   -2.4892    2.6314 O.2       1 <0>         0.0000
     23 H1          9.4767   -5.4035    2.0784 H         1 <0>         0.0000
     24 H2          6.4006   -2.4456    5.0885 H         1 <0>         0.0000
     25 H3          4.8609   -2.6219    4.2310 H         1 <0>         0.0000
     26 H4          5.1097   -1.2817    5.3659 H         1 <0>         0.0000
     27 H5          7.9623   -0.4436    4.5008 H         1 <0>         0.0000
     28 H6          7.4545    0.6861    3.2321 H         1 <0>         0.0000
     29 H7          6.5886    0.6429    4.7727 H         1 <0>         0.0000
     30 H8          2.8872   -4.1345   -2.0879 H         1 <0>         0.0000
     31 H9          2.1738   -5.7124   -1.7140 H         1 <0>         0.0000
     32 H10         3.5794   -5.1449   -0.8119 H         1 <0>         0.0000
     33 H11         0.7565   -4.7621    1.6349 H         1 <0>         0.0000
     34 H12         2.3282   -5.5113    1.3711 H         1 <0>         0.0000
     35 H13         0.9158   -6.0685    0.4541 H         1 <0>         0.0000
     36 H14        -0.3050   -3.3025   -0.2384 H         1 <0>         0.0000
     37 H15        -0.1179   -4.6740   -1.3329 H         1 <0>         0.0000
     38 H16         0.5457   -3.0900   -1.7676 H         1 <0>         0.0000
     39 H17        -0.9522   -0.7139    1.8767 H         1 <0>         0.0000
     40 H18        -0.0213    0.7135    1.3710 H         1 <0>         0.0000
     41 H19         0.4945   -0.2269    2.7876 H         1 <0>         0.0000
     42 H20         7.7322   -2.3581    2.8457 H         1 <0>         0.0000
     43 H21         7.2705   -1.1813    1.6250 H         1 <0>         0.0000
     44 H22         6.1354   -4.3010   -0.0008 H         1 <0>         0.0000
     45 H23         7.4165   -3.0830    0.0367 H         1 <0>         0.0000
     46 H24         5.6479   -3.6501    2.4472 H         1 <0>         0.0000
     47 H25         2.6549   -2.1876   -0.4426 H         1 <0>         0.0000
     48 H26         5.2955   -0.5008    2.9986 H         1 <0>         0.0000
     49 H27         0.8872   -0.9429   -0.0594 H         1 <0>         0.0000
     50 H28         3.8157   -4.1378    1.3829 H         1 <0>         0.0000
@<TRIPOS>BOND
     1    1   18 am
     2    1   20 2
     3    2   12 1
     4    2   17 am
     5    2   21 2
     6    3   13 1
     7    3   16 am
     8    3   22 2
     9    4   14 1
    10    5   14 1
    11    6   15 1
    12    7   15 1
    13    8   15 1
    14    9   16 1
    15   10   12 1
    16   10   14 1
    17   11   12 1
    18   11   18 1
    19   13   15 1
    20   13   17 1
    21   18   19 1
    22    1   23 1
    23    4   24 1
    24    4   25 1
    25    4   26 1
    26    5   27 1
    27    5   28 1
    28    5   29 1
    29    6   30 1
    30    6   31 1
    31    6   32 1
    32    7   33 1
    33    7   34 1
    34    7   35 1
    35    8   36 1
    36    8   37 1
    37    8   38 1
    38    9   39 1
    39    9   40 1
    40    9   41 1
    41   10   42 1
    42   10   43 1
    43   11   44 1
    44   11   45 1
    45   12   46 1
    46   13   47 1
    47   14   48 1
    48   16   49 1
    49   17   50 1
@<TRIPOS>MOLECULE
LIGAND
   50    49     0     0     0
SMALL
NO_CHARGES

@<TRIPOS>ATOM
      1 C1          9.0094   -4.5043    1.6394 C.2       1 <0>         0.0000
      2 C2          4.7609   -2.3304    1.0158 C.2       1 <0>         0.0000
      3 C3          1.4114   -2.9063    1.5049 C.2       1 <0>         0.0000
      4 C4          5.5916   -1.8934    4.5978 C.3       1 <0>         0.0000
      5 C5          7.0929    0.0222    4.0244 C.3       1 <0>         0.0000
      6 C6          3.1857   -3.8003   -1.8813 C.3       1 <0>         0.0000
      7 C7          1.9543   -5.3076   -0.3278 C.3       1 <0>         0.0000
      8 C8          0.7370   -3.4626   -1.4991 C.3       1 <0>         0.0000
      9 C9         -0.5781   -1.7107    2.3670 C.3       1 <0>         0.0000
     10 C10         6.8665   -1.8668    2.3816 C.3       1 <0>         0.0000
     11 C11         6.8055   -3.7427    0.6616 C.3       1 <0>         0.0000
     12 C12         5.9953   -2.9363    1.6910 C.3       1 <0>         0.0000
     13 C13         2.4245   -2.8999    0.3599 C.3       1 <0>         0.0000
     14 C14         6.1374   -1.0321    3.4575 C.3       1 <0>         0.0000
     15 C15         2.0646   -3.8508   -0.8201 C.3       1 <0>         0.0000
     16 N1          0.4604   -1.9038    1.3835 N.am      1 <0>         0.0000
     17 N2          3.6959   -3.2182    0.9688 N.am      1 <0>         0.0000
     18 N3          7.7018   -4.6947    1.2608 N.am      1 <0>         0.0000
     19 O1          7.1560   -5.9460    1.4704 O.3       1 <0>         0.0000
     20 O2          9.6534   -3.4652    1.5292 O.2       1 <0>         0.0000
     21 O3          4.7482   -1.1914    0.5542 O.2       1 <0>         0.0000
     22 O4          1.4623   -3.7076    2.4368 O.2       1 <0>         0.0000
     23 H1          9.4767   -5.4035    2.0784 H         1 <0>         0.0000
     24 H2          6.4006   -2.4456    5.0885 H         1 <0>         0.0000
     25 H3          4.8609   -2.6219    4.2310 H         1 <0>         0.0000
     26 H4          5.1097   -1.2817    5.3659 H         1 <0>         0.0000
     27 H5          7.9623   -0.4436    4.5008 H         1 <0>         0.0000
     28 H6          7.4545    0.6861    3.2321 H         1 <0>         0.0000
     29 H7          6.5886    0.6429    4.7727 H         1 <0>         0.0000
     30 H8          3.3133   -2.7845   -2.2720 H         1 <0>         0.0000
     31 H9          2.9723   -4.4622   -2.7277 H         1 <0>         0.0000
     32 H10         4.1465   -4.1154   -1.4578 H         1 <0>         0.0000
     33 H11         1.1705   -5.4095    0.4319 H         1 <0>         0.0000
     34 H12         2.8879   -5.6535    0.1281 H         1 <0>         0.0000
     35 H13         1.7055   -5.9859   -1.1517 H         1 <0>         0.0000
     36 H14        -0.0909   -3.4848   -0.7807 H         1 <0>         0.0000
     37 H15         0.4812   -4.1517   -2.3109 H         1 <0>         0.0000
     38 H16         0.7762   -2.4505   -1.9146 H         1 <0>         0.0000
     39 H17        -1.4589   -2.3023    2.1044 H         1 <0>         0.0000
     40 H18        -0.8634   -0.6562    2.4133 H         1 <0>         0.0000
     41 H19        -0.2264   -2.0222    3.3542 H         1 <0>         0.0000
     42 H20         7.7322   -2.3581    2.8457 H         1 <0>         0.0000
     43 H21         7.2705   -1.1813    1.6250 H         1 <0>         0.0000
     44 H22         6.1354   -4.3010   -0.0008 H         1 <0>         0.0000
     45 H23         7.4165   -3.0830    0.0367 H         1 <0>         0.0000
     46 H24         5.6479   -3.6501    2.4472 H         1 <0>         0.0000
     47 H25         2.5279   -1.8729   -0.0129 H         1 <0>         0.0000
     48 H26         5.2955   -0.5008    2.9986 H         1 <0>         0.0000
     49 H27         0.4960   -1.2867    0.5777 H         1 <0>         0.0000
     50 H28         3.8157   -4.1378    1.3829 H         1 <0>         0.0000
@<TRIPOS>BOND
     1    1   18 am
     2    1   20 2
     3    2   12 1
     4    2   17 am
     5    2   21 2
     6    3   13 1
     7    3   16 am
     8    3   22 2
     9    4   14 1
    10    5   14 1
    11    6   15 1
    12    7   15 1
    13    8   15 1
    14    9   16 1
    15   10   12 1
    16   10   14 1
    17   11   12 1
    18   11   18 1
    19   13   15 1
    20   13   17 1
    21   18   19 1
    22    1   23 1
    23    4   24 1
    24    4   25 1
    25    4   26 1
    26    5   27 1
    27    5   28 1
    28    5   29 1
    29    6   30 1
    30    6   31 1
    31    6   32 1
    32    7   33 1
    33    7   34 1
    34    7   35 1
    35    8   36 1
    36    8   37 1
    37    8   38 1
    38    9   39 1
    39    9   40 1
    40    9   41 1
    41   10   42 1
    42   10   43 1
    43   11   44 1
    44   11   45 1
    45   12   46 1
    46   13   47 1
    47   14   48 1
    48   16   49 1
    49   17   50 1
@<TRIPOS>MOLECULE
LIGAND
   50    49     0     0     0
SMALL
NO_CHARGES

@<TRIPOS>ATOM
      1 C1          6.8958   -1.5680    4.6682 C.2       1 <0>         0.0000
      2 C2          4.7609   -2.3304    1.0158 C.2       1 <0>         0.0000
      3 C3          1.6238   -2.1763    1.4428 C.2       1 <0>         0.0000
      4 C4          7.9668   -2.9805   -0.7195 C.3       1 <0>         0.0000
      5 C5          7.2752   -5.3485   -1.1277 C.3       1 <0>         0.0000
      6 C6          2.6382   -4.8237   -1.2732 C.3       1 <0>         0.0000
      7 C7          1.4139   -5.1834    0.8654 C.3       1 <0>         0.0000
      8 C8          0.3871   -3.7862   -0.9377 C.3       1 <0>         0.0000
      9 C9          0.0532   -0.2939    1.7895 C.3       1 <0>         0.0000
     10 C10         6.4903   -4.2069    0.9698 C.3       1 <0>         0.0000
     11 C11         5.6912   -3.2135    3.1734 C.3       1 <0>         0.0000
     12 C12         5.9953   -2.9363    1.6910 C.3       1 <0>         0.0000
     13 C13         2.4245   -2.8999    0.3599 C.3       1 <0>         0.0000
     14 C14         6.8518   -4.0083   -0.5189 C.3       1 <0>         0.0000
     15 C15         1.7114   -4.1488   -0.2382 C.3       1 <0>         0.0000
     16 N1          0.8675   -1.1285    0.9389 N.am      1 <0>         0.0000
     17 N2          3.6959   -3.2182    0.9688 N.am      1 <0>         0.0000
     18 N3          5.7903   -2.0436    4.0042 N.am      1 <0>         0.0000
     19 O1          4.6156   -1.3288    4.1337 O.3       1 <0>         0.0000
     20 O2          8.0156   -2.0707    4.6671 O.2       1 <0>         0.0000
     21 O3          4.7482   -1.1914    0.5542 O.2       1 <0>         0.0000
     22 O4          1.6741   -2.4892    2.6314 O.2       1 <0>         0.0000
     23 H1          6.7023   -0.6439    5.2411 H         1 <0>         0.0000
     24 H2          8.8753   -3.2848   -0.1883 H         1 <0>         0.0000
     25 H3          7.6713   -1.9951   -0.3441 H         1 <0>         0.0000
     26 H4          8.2323   -2.8793   -1.7758 H         1 <0>         0.0000
     27 H5          8.1599   -5.7527   -0.6240 H         1 <0>         0.0000
     28 H6          6.4698   -6.0859   -1.0440 H         1 <0>         0.0000
     29 H7          7.5125   -5.2358   -2.1909 H         1 <0>         0.0000
     30 H8          2.8872   -4.1345   -2.0879 H         1 <0>         0.0000
     31 H9          2.1738   -5.7124   -1.7140 H         1 <0>         0.0000
     32 H10         3.5794   -5.1449   -0.8119 H         1 <0>         0.0000
     33 H11         0.7565   -4.7621    1.6349 H         1 <0>         0.0000
     34 H12         2.3282   -5.5113    1.3711 H         1 <0>         0.0000
     35 H13         0.9158   -6.0685    0.4541 H         1 <0>         0.0000
     36 H14        -0.3050   -3.3025   -0.2384 H         1 <0>         0.0000
     37 H15        -0.1179   -4.6740   -1.3329 H         1 <0>         0.0000
     38 H16         0.5457   -3.0900   -1.7676 H         1 <0>         0.0000
     39 H17        -0.9522   -0.7139    1.8767 H         1 <0>         0.0000
     40 H18        -0.0213    0.7135    1.3710 H         1 <0>         0.0000
     41 H19         0.4945   -0.2269    2.7876 H         1 <0>         0.0000
     42 H20         7.3727   -4.5944    1.4964 H         1 <0>         0.0000
     43 H21         5.7222   -4.9884    1.0394 H         1 <0>         0.0000
     44 H22         4.6761   -3.6079    3.2888 H         1 <0>         0.0000
     45 H23         6.3842   -3.9541    3.5861 H         1 <0>         0.0000
     46 H24         6.7931   -2.1847    1.6686 H         1 <0>         0.0000
     47 H25         2.6549   -2.1876   -0.4426 H         1 <0>         0.0000
     48 H26         5.9671   -3.6628   -1.0661 H         1 <0>         0.0000
     49 H27         0.8872   -0.9429   -0.0594 H         1 <0>         0.0000
     50 H28         3.8157   -4.1378    1.3829 H         1 <0>         0.0000
@<TRIPOS>BOND
     1    1   18 am
     2    1   20 2
     3    2   12 1
     4    2   17 am
     5    2   21 2
     6    3   13 1
     7    3   16 am
     8    3   22 2
     9    4   14 1
    10    5   14 1
    11    6   15 1
    12    7   15 1
    13    8   15 1
    14    9   16 1
    15   10   12 1
    16   10   14 1
    17   11   12 1
    18   11   18 1
    19   13   15 1
    20   13   17 1
    21   18   19 1
    22    1   23 1
    23    4   24 1
    24    4   25 1
    25    4   26 1
    26    5   27 1
    27    5   28 1
    28    5   29 1
    29    6   30 1
    30    6   31 1
    31    6   32 1
    32    7   33 1
    33    7   34 1
    34    7   35 1
    35    8   36 1
    36    8   37 1
    37    8   38 1
    38    9   39 1
    39    9   40 1
    40    9   41 1
    41   10   42 1
    42   10   43 1
    43   11   44 1
    44   11   45 1
    45   12   46 1
    46   13   47 1
    47   14   48 1
    48   16   49 1
    49   17   50 1
@<TRIPOS>MOLECULE
LIGAND
   50    49     0     0     0
SMALL
NO_CHARGES

@<TRIPOS>ATOM
      1 C1          4.8014   -1.1421    4.3182 C.2       1 <0>         0.0000
      2 C2          4.7609   -2.3304    1.0158 C.2       1 <0>         0.0000
      3 C3          1.6238   -2.1763    1.4428 C.2       1 <0>         0.0000
      4 C4          7.9668   -2.9805   -0.7195 C.3       1 <0>         0.0000
      5 C5          7.2752   -5.3485   -1.1277 C.3       1 <0>         0.0000
      6 C6          2.6382   -4.8237   -1.2732 C.3       1 <0>         0.0000
      7 C7          1.4139   -5.1834    0.8654 C.3       1 <0>         0.0000
      8 C8          0.3871   -3.7862   -0.9377 C.3       1 <0>         0.0000
      9 C9          0.0532   -0.2939    1.7895 C.3       1 <0>         0.0000
     10 C10         6.4903   -4.2069    0.9698 C.3       1 <0>         0.0000
     11 C11         5.6912   -3.2135    3.1734 C.3       1 <0>         0.0000
     12 C12         5.9953   -2.9363    1.6910 C.3       1 <0>         0.0000
     13 C13         2.4245   -2.8999    0.3599 C.3       1 <0>         0.0000
     14 C14         6.8518   -4.0083   -0.5189 C.3       1 <0>         0.0000
     15 C15         1.7114   -4.1488   -0.2382 C.3       1 <0>         0.0000
     16 N1          0.8675   -1.1285    0.9389 N.am      1 <0>         0.0000
     17 N2          3.6959   -3.2182    0.9688 N.am      1 <0>         0.0000
     18 N3          5.7903   -2.0436    4.0042 N.am      1 <0>         0.0000
     19 O1          7.0443   -1.8225    4.5393 O.3       1 <0>         0.0000
     20 O2          3.6358   -1.1801    3.9353 O.2       1 <0>         0.0000
     21 O3          4.7482   -1.1914    0.5542 O.2       1 <0>         0.0000
     22 O4          1.6741   -2.4892    2.6314 O.2       1 <0>         0.0000
     23 H1          5.1422   -0.3267    4.9806 H         1 <0>         0.0000
     24 H2          8.8753   -3.2848   -0.1883 H         1 <0>         0.0000
     25 H3          7.6713   -1.9951   -0.3441 H         1 <0>         0.0000
     26 H4          8.2323   -2.8793   -1.7758 H         1 <0>         0.0000
     27 H5          8.1599   -5.7527   -0.6240 H         1 <0>         0.0000
     28 H6          6.4698   -6.0859   -1.0440 H         1 <0>         0.0000
     29 H7          7.5125   -5.2358   -2.1909 H         1 <0>         0.0000
     30 H8          2.8872   -4.1345   -2.0879 H         1 <0>         0.0000
     31 H9          2.1738   -5.7124   -1.7140 H         1 <0>         0.0000
     32 H10         3.5794   -5.1449   -0.8119 H         1 <0>         0.0000
     33 H11         0.7565   -4.7621    1.6349 H         1 <0>         0.0000
     34 H12         2.3282   -5.5113    1.3711 H         1 <0>         0.0000
     35 H13         0.9158   -6.0685    0.4541 H         1 <0>         0.0000
     36 H14        -0.3050   -3.3025   -0.2384 H         1 <0>         0.0000
     37 H15        -0.1179   -4.6740   -1.3329 H         1 <0>         0.0000
     38 H16         0.5457   -3.0900   -1.7676 H         1 <0>         0.0000
     39 H17        -0.9522   -0.7139    1.8767 H         1 <0>         0.0000
     40 H18        -0.0213    0.7135    1.3710 H         1 <0>         0.0000
     41 H19         0.4945   -0.2269    2.7876 H         1 <0>         0.0000
     42 H20         7.3727   -4.5944    1.4964 H         1 <0>         0.0000
     43 H21         5.7222   -4.9884    1.0394 H         1 <0>         0.0000
     44 H22         4.6761   -3.6079    3.2888 H         1 <0>         0.0000
     45 H23         6.3842   -3.9541    3.5861 H         1 <0>         0.0000
     46 H24         6.7931   -2.1847    1.6686 H         1 <0>         0.0000
     47 H25         2.6549   -2.1876   -0.4426 H         1 <0>         0.0000
     48 H26         5.9671   -3.6628   -1.0661 H         1 <0>         0.0000
     49 H27         0.8872   -0.9429   -0.0594 H         1 <0>         0.0000
     50 H28         3.8157   -4.1378    1.3829 H         1 <0>         0.0000
@<TRIPOS>BOND
     1    1   18 am
     2    1   20 2
     3    2   12 1
     4    2   17 am
     5    2   21 2
     6    3   13 1
     7    3   16 am
     8    3   22 2
     9    4   14 1
    10    5   14 1
    11    6   15 1
    12    7   15 1
    13    8   15 1
    14    9   16 1
    15   10   12 1
    16   10   14 1
    17   11   12 1
    18   11   18 1
    19   13   15 1
    20   13   17 1
    21   18   19 1
    22    1   23 1
    23    4   24 1
    24    4   25 1
    25    4   26 1
    26    5   27 1
    27    5   28 1
    28    5   29 1
    29    6   30 1
    30    6   31 1
    31    6   32 1
    32    7   33 1
    33    7   34 1
    34    7   35 1
    35    8   36 1
    36    8   37 1
    37    8   38 1
    38    9   39 1
    39    9   40 1
    40    9   41 1
    41   10   42 1
    42   10   43 1
    43   11   44 1
    44   11   45 1
    45   12   46 1
    46   13   47 1
    47   14   48 1
    48   16   49 1
    49   17   50 1
@<TRIPOS>MOLECULE
LIGAND
   50    49     0     0     0
SMALL
NO_CHARGES

@<TRIPOS>ATOM
      1 C1          9.2881   -3.7695    1.7893 C.2       1 <0>         0.0000
      2 C2          4.7609   -2.3304    1.0158 C.2       1 <0>         0.0000
      3 C3          1.6238   -2.1763    1.4428 C.2       1 <0>         0.0000
      4 C4          4.8998   -3.3220    4.5808 C.3       1 <0>         0.0000
      5 C5          5.9126   -1.1117    5.1647 C.3       1 <0>         0.0000
      6 C6          2.6382   -4.8237   -1.2732 C.3       1 <0>         0.0000
      7 C7          1.4139   -5.1834    0.8654 C.3       1 <0>         0.0000
      8 C8          0.3871   -3.7862   -0.9377 C.3       1 <0>         0.0000
      9 C9          0.0532   -0.2939    1.7895 C.3       1 <0>         0.0000
     10 C10         6.4405   -2.1272    2.9267 C.3       1 <0>         0.0000
     11 C11         7.1342   -3.0688    0.6654 C.3       1 <0>         0.0000
     12 C12         5.9953   -2.9363    1.6910 C.3       1 <0>         0.0000
     13 C13         2.4245   -2.8999    0.3599 C.3       1 <0>         0.0000
     14 C14         5.3645   -1.9750    4.0244 C.3       1 <0>         0.0000
     15 C15         1.7114   -4.1488   -0.2382 C.3       1 <0>         0.0000
     16 N1          0.8675   -1.1285    0.9389 N.am      1 <0>         0.0000
     17 N2          3.6959   -3.2182    0.9688 N.am      1 <0>         0.0000
     18 N3          8.1489   -4.0093    1.0586 N.am      1 <0>         0.0000
     19 O1          7.9264   -5.3055    0.6367 O.3       1 <0>         0.0000
     20 O2          9.6450   -2.6864    2.2434 O.2       1 <0>         0.0000
     21 O3          4.7482   -1.1914    0.5542 O.2       1 <0>         0.0000
     22 O4          1.6741   -2.4892    2.6314 O.2       1 <0>         0.0000
     23 H1          9.9041   -4.6711    1.9543 H         1 <0>         0.0000
     24 H2          5.7423   -3.8772    5.0075 H         1 <0>         0.0000
     25 H3          4.4501   -3.9417    3.7978 H         1 <0>         0.0000
     26 H4          4.1642   -3.1925    5.3800 H         1 <0>         0.0000
     27 H5          6.7922   -1.5734    5.6261 H         1 <0>         0.0000
     28 H6          6.2016   -0.1209    4.7985 H         1 <0>         0.0000
     29 H7          5.1564   -0.9697    5.9440 H         1 <0>         0.0000
     30 H8          2.8872   -4.1345   -2.0879 H         1 <0>         0.0000
     31 H9          2.1738   -5.7124   -1.7140 H         1 <0>         0.0000
     32 H10         3.5794   -5.1449   -0.8119 H         1 <0>         0.0000
     33 H11         0.7565   -4.7621    1.6349 H         1 <0>         0.0000
     34 H12         2.3282   -5.5113    1.3711 H         1 <0>         0.0000
     35 H13         0.9158   -6.0685    0.4541 H         1 <0>         0.0000
     36 H14        -0.3050   -3.3025   -0.2384 H         1 <0>         0.0000
     37 H15        -0.1179   -4.6740   -1.3329 H         1 <0>         0.0000
     38 H16         0.5457   -3.0900   -1.7676 H         1 <0>         0.0000
     39 H17        -0.9522   -0.7139    1.8767 H         1 <0>         0.0000
     40 H18        -0.0213    0.7135    1.3710 H         1 <0>         0.0000
     41 H19         0.4945   -0.2269    2.7876 H         1 <0>         0.0000
     42 H20         7.3251   -2.6069    3.3666 H         1 <0>         0.0000
     43 H21         6.7588   -1.1249    2.6110 H         1 <0>         0.0000
     44 H22         6.7419   -3.4007   -0.3017 H         1 <0>         0.0000
     45 H23         7.6368   -2.1087    0.5083 H         1 <0>         0.0000
     46 H24         5.7385   -3.9535    2.0094 H         1 <0>         0.0000
     47 H25         2.6549   -2.1876   -0.4426 H         1 <0>         0.0000
     48 H26         4.4913   -1.4577    3.6101 H         1 <0>         0.0000
     49 H27         0.8872   -0.9429   -0.0594 H         1 <0>         0.0000
     50 H28         3.8157   -4.1378    1.3829 H         1 <0>         0.0000
@<TRIPOS>BOND
     1    1   18 am
     2    1   20 2
     3    2   12 1
     4    2   17 am
     5    2   21 2
     6    3   13 1
     7    3   16 am
     8    3   22 2
     9    4   14 1
    10    5   14 1
    11    6   15 1
    12    7   15 1
    13    8   15 1
    14    9   16 1
    15   10   12 1
    16   10   14 1
    17   11   12 1
    18   11   18 1
    19   13   15 1
    20   13   17 1
    21   18   19 1
    22    1   23 1
    23    4   24 1
    24    4   25 1
    25    4   26 1
    26    5   27 1
    27    5   28 1
    28    5   29 1
    29    6   30 1
    30    6   31 1
    31    6   32 1
    32    7   33 1
    33    7   34 1
    34    7   35 1
    35    8   36 1
    36    8   37 1
    37    8   38 1
    38    9   39 1
    39    9   40 1
    40    9   41 1
    41   10   42 1
    42   10   43 1
    43   11   44 1
    44   11   45 1
    45   12   46 1
    46   13   47 1
    47   14   48 1
    48   16   49 1
    49   17   50 1
@<TRIPOS>MOLECULE
LIGAND
   50    49     0     0     0
SMALL
NO_CHARGES

@<TRIPOS>ATOM
      1 C1          7.5069   -5.4885    0.0335 C.2       1 <0>         0.0000
      2 C2          4.7609   -2.3304    1.0158 C.2       1 <0>         0.0000
      3 C3          1.6238   -2.1763    1.4428 C.2       1 <0>         0.0000
      4 C4          4.8998   -3.3220    4.5808 C.3       1 <0>         0.0000
      5 C5          5.9126   -1.1117    5.1647 C.3       1 <0>         0.0000
      6 C6          2.6382   -4.8237   -1.2732 C.3       1 <0>         0.0000
      7 C7          1.4139   -5.1834    0.8654 C.3       1 <0>         0.0000
      8 C8          0.3871   -3.7862   -0.9377 C.3       1 <0>         0.0000
      9 C9          0.0532   -0.2939    1.7895 C.3       1 <0>         0.0000
     10 C10         6.4405   -2.1272    2.9267 C.3       1 <0>         0.0000
     11 C11         7.1342   -3.0688    0.6654 C.3       1 <0>         0.0000
     12 C12         5.9953   -2.9363    1.6910 C.3       1 <0>         0.0000
     13 C13         2.4245   -2.8999    0.3599 C.3       1 <0>         0.0000
     14 C14         5.3645   -1.9750    4.0244 C.3       1 <0>         0.0000
     15 C15         1.7114   -4.1488   -0.2382 C.3       1 <0>         0.0000
     16 N1          0.8675   -1.1285    0.9389 N.am      1 <0>         0.0000
     17 N2          3.6959   -3.2182    0.9688 N.am      1 <0>         0.0000
     18 N3          7.0083   -4.2255   -0.1801 N.am      1 <0>         0.0000
     19 O1          6.2940   -4.0132   -1.3430 O.3       1 <0>         0.0000
     20 O2          8.1609   -5.8564    1.0048 O.2       1 <0>         0.0000
     21 O3          4.7482   -1.1914    0.5542 O.2       1 <0>         0.0000
     22 O4          1.6741   -2.4892    2.6314 O.2       1 <0>         0.0000
     23 H1          7.2671   -6.1999   -0.7765 H         1 <0>         0.0000
     24 H2          5.7423   -3.8772    5.0075 H         1 <0>         0.0000
     25 H3          4.4501   -3.9417    3.7978 H         1 <0>         0.0000
     26 H4          4.1642   -3.1925    5.3800 H         1 <0>         0.0000
     27 H5          6.7922   -1.5734    5.6261 H         1 <0>         0.0000
     28 H6          6.2016   -0.1209    4.7985 H         1 <0>         0.0000
     29 H7          5.1564   -0.9697    5.9440 H         1 <0>         0.0000
     30 H8          2.8872   -4.1345   -2.0879 H         1 <0>         0.0000
     31 H9          2.1738   -5.7124   -1.7140 H         1 <0>         0.0000
     32 H10         3.5794   -5.1449   -0.8119 H         1 <0>         0.0000
     33 H11         0.7565   -4.7621    1.6349 H         1 <0>         0.0000
     34 H12         2.3282   -5.5113    1.3711 H         1 <0>         0.0000
     35 H13         0.9158   -6.0685    0.4541 H         1 <0>         0.0000
     36 H14        -0.3050   -3.3025   -0.2384 H         1 <0>         0.0000
     37 H15        -0.1179   -4.6740   -1.3329 H         1 <0>         0.0000
     38 H16         0.5457   -3.0900   -1.7676 H         1 <0>         0.0000
     39 H17        -0.9522   -0.7139    1.8767 H         1 <0>         0.0000
     40 H18        -0.0213    0.7135    1.3710 H         1 <0>         0.0000
     41 H19         0.4945   -0.2269    2.7876 H         1 <0>         0.0000
     42 H20         7.3251   -2.6069    3.3666 H         1 <0>         0.0000
     43 H21         6.7588   -1.1249    2.6110 H         1 <0>         0.0000
     44 H22         7.1645   -2.1910    0.0112 H         1 <0>         0.0000
     45 H23         8.1063   -3.1455    1.1636 H         1 <0>         0.0000
     46 H24         5.7385   -3.9535    2.0094 H         1 <0>         0.0000
     47 H25         2.6549   -2.1876   -0.4426 H         1 <0>         0.0000
     48 H26         4.4913   -1.4577    3.6101 H         1 <0>         0.0000
     49 H27         0.8872   -0.9429   -0.0594 H         1 <0>         0.0000
     50 H28         3.8157   -4.1378    1.3829 H         1 <0>         0.0000
@<TRIPOS>BOND
     1    1   18 am
     2    1   20 2
     3    2   12 1
     4    2   17 am
     5    2   21 2
     6    3   13 1
     7    3   16 am
     8    3   22 2
     9    4   14 1
    10    5   14 1
    11    6   15 1
    12    7   15 1
    13    8   15 1
    14    9   16 1
    15   10   12 1
    16   10   14 1
    17   11   12 1
    18   11   18 1
    19   13   15 1
    20   13   17 1
    21   18   19 1
    22    1   23 1
    23    4   24 1
    24    4   25 1
    25    4   26 1
    26    5   27 1
    27    5   28 1
    28    5   29 1
    29    6   30 1
    30    6   31 1
    31    6   32 1
    32    7   33 1
    33    7   34 1
    34    7   35 1
    35    8   36 1
    36    8   37 1
    37    8   38 1
    38    9   39 1
    39    9   40 1
    40    9   41 1
    41   10   42 1
    42   10   43 1
    43   11   44 1
    44   11   45 1
    45   12   46 1
    46   13   47 1
    47   14   48 1
    48   16   49 1
    49   17   50 1
@<TRIPOS>MOLECULE
LIGAND
   50    49     0     0     0
SMALL
NO_CHARGES

@<TRIPOS>ATOM
      1 C1          8.4401   -2.2571   -0.5690 C.2       1 <0>         0.0000
      2 C2          4.7609   -2.3304    1.0158 C.2       1 <0>         0.0000
      3 C3          1.6238   -2.1763    1.4428 C.2       1 <0>         0.0000
      4 C4          5.5916   -1.8934    4.5978 C.3       1 <0>         0.0000
      5 C5          7.0929    0.0222    4.0244 C.3       1 <0>         0.0000
      6 C6          2.6382   -4.8237   -1.2732 C.3       1 <0>         0.0000
      7 C7          1.4139   -5.1834    0.8654 C.3       1 <0>         0.0000
      8 C8          0.3871   -3.7862   -0.9377 C.3       1 <0>         0.0000
      9 C9          0.0532   -0.2939    1.7895 C.3       1 <0>         0.0000
     10 C10         6.8665   -1.8668    2.3816 C.3       1 <0>         0.0000
     11 C11         6.8055   -3.7427    0.6616 C.3       1 <0>         0.0000
     12 C12         5.9953   -2.9363    1.6910 C.3       1 <0>         0.0000
     13 C13         2.4245   -2.8999    0.3599 C.3       1 <0>         0.0000
     14 C14         6.1374   -1.0321    3.4575 C.3       1 <0>         0.0000
     15 C15         1.7114   -4.1488   -0.2382 C.3       1 <0>         0.0000
     16 N1          0.8675   -1.1285    0.9389 N.am      1 <0>         0.0000
     17 N2          3.6959   -3.2182    0.9688 N.am      1 <0>         0.0000
     18 N3          7.2606   -2.9528   -0.4510 N.am      1 <0>         0.0000
     19 O1          6.3854   -2.9043   -1.5183 O.3       1 <0>         0.0000
     20 O2          9.3298   -2.1878    0.2738 O.2       1 <0>         0.0000
     21 O3          4.7482   -1.1914    0.5542 O.2       1 <0>         0.0000
     22 O4          1.6741   -2.4892    2.6314 O.2       1 <0>         0.0000
     23 H1          8.5459   -1.7288   -1.5330 H         1 <0>         0.0000
     24 H2          6.4006   -2.4456    5.0885 H         1 <0>         0.0000
     25 H3          4.8609   -2.6219    4.2310 H         1 <0>         0.0000
     26 H4          5.1097   -1.2817    5.3659 H         1 <0>         0.0000
     27 H5          7.9623   -0.4436    4.5008 H         1 <0>         0.0000
     28 H6          7.4545    0.6861    3.2321 H         1 <0>         0.0000
     29 H7          6.5886    0.6429    4.7727 H         1 <0>         0.0000
     30 H8          2.8872   -4.1345   -2.0879 H         1 <0>         0.0000
     31 H9          2.1738   -5.7124   -1.7140 H         1 <0>         0.0000
     32 H10         3.5794   -5.1449   -0.8119 H         1 <0>         0.0000
     33 H11         0.7565   -4.7621    1.6349 H         1 <0>         0.0000
     34 H12         2.3282   -5.5113    1.3711 H         1 <0>         0.0000
     35 H13         0.9158   -6.0685    0.4541 H         1 <0>         0.0000
     36 H14        -0.3050   -3.3025   -0.2384 H         1 <0>         0.0000
     37 H15        -0.1179   -4.6740   -1.3329 H         1 <0>         0.0000
     38 H16         0.5457   -3.0900   -1.7676 H         1 <0>         0.0000
     39 H17        -0.9522   -0.7139    1.8767 H         1 <0>         0.0000
     40 H18        -0.0213    0.7135    1.3710 H         1 <0>         0.0000
     41 H19         0.4945   -0.2269    2.7876 H         1 <0>         0.0000
     42 H20         7.7322   -2.3581    2.8457 H         1 <0>         0.0000
     43 H21         7.2705   -1.1813    1.6250 H         1 <0>         0.0000
     44 H22         7.6920   -4.1821    1.1312 H         1 <0>         0.0000
     45 H23         6.2097   -4.5617    0.2452 H         1 <0>         0.0000
     46 H24         5.6479   -3.6501    2.4472 H         1 <0>         0.0000
     47 H25         2.6549   -2.1876   -0.4426 H         1 <0>         0.0000
     48 H26         5.2955   -0.5008    2.9986 H         1 <0>         0.0000
     49 H27         0.8872   -0.9429   -0.0594 H         1 <0>         0.0000
     50 H28         3.8157   -4.1378    1.3829 H         1 <0>         0.0000
@<TRIPOS>BOND
     1    1   18 am
     2    1   20 2
     3    2   12 1
     4    2   17 am
     5    2   21 2
     6    3   13 1
     7    3   16 am
     8    3   22 2
     9    4   14 1
    10    5   14 1
    11    6   15 1
    12    7   15 1
    13    8   15 1
    14    9   16 1
    15   10   12 1
    16   10   14 1
    17   11   12 1
    18   11   18 1
    19   13   15 1
    20   13   17 1
    21   18   19 1
    22    1   23 1
    23    4   24 1
    24    4   25 1
    25    4   26 1
    26    5   27 1
    27    5   28 1
    28    5   29 1
    29    6   30 1
    30    6   31 1
    31    6   32 1
    32    7   33 1
    33    7   34 1
    34    7   35 1
    35    8   36 1
    36    8   37 1
    37    8   38 1
    38    9   39 1
    39    9   40 1
    40    9   41 1
    41   10   42 1
    42   10   43 1
    43   11   44 1
    44   11   45 1
    45   12   46 1
    46   13   47 1
    47   14   48 1
    48   16   49 1
    49   17   50 1
@<TRIPOS>MOLECULE
LIGAND
   50    49     0     0     0
SMALL
NO_CHARGES

@<TRIPOS>ATOM
      1 C1          7.5576   -2.3672    4.6544 C.2       1 <0>         0.0000
      2 C2          4.7609   -2.3304    1.0158 C.2       1 <0>         0.0000
      3 C3          1.6238   -2.1763    1.4428 C.2       1 <0>         0.0000
      4 C4          7.9668   -2.9805   -0.7195 C.3       1 <0>         0.0000
      5 C5          7.2752   -5.3485   -1.1277 C.3       1 <0>         0.0000
      6 C6          2.6382   -4.8237   -1.2732 C.3       1 <0>         0.0000
      7 C7          1.4139   -5.1834    0.8654 C.3       1 <0>         0.0000
      8 C8          0.3871   -3.7862   -0.9377 C.3       1 <0>         0.0000
      9 C9          0.0532   -0.2939    1.7895 C.3       1 <0>         0.0000
     10 C10         6.4903   -4.2069    0.9698 C.3       1 <0>         0.0000
     11 C11         5.6912   -3.2135    3.1734 C.3       1 <0>         0.0000
     12 C12         5.9953   -2.9363    1.6910 C.3       1 <0>         0.0000
     13 C13         2.4245   -2.8999    0.3599 C.3       1 <0>         0.0000
     14 C14         6.8518   -4.0083   -0.5189 C.3       1 <0>         0.0000
     15 C15         1.7114   -4.1488   -0.2382 C.3       1 <0>         0.0000
     16 N1          0.8675   -1.1285    0.9389 N.am      1 <0>         0.0000
     17 N2          3.6959   -3.2182    0.9688 N.am      1 <0>         0.0000
     18 N3          6.8729   -3.3510    3.9817 N.am      1 <0>         0.0000
     19 O1          7.3583   -4.6406    4.0766 O.3       1 <0>         0.0000
     20 O2          7.2727   -1.1736    4.6825 O.2       1 <0>         0.0000
     21 O3          4.7482   -1.1914    0.5542 O.2       1 <0>         0.0000
     22 O4          1.6741   -2.4892    2.6314 O.2       1 <0>         0.0000
     23 H1          8.4389   -2.7411    5.2052 H         1 <0>         0.0000
     24 H2          8.8753   -3.2848   -0.1883 H         1 <0>         0.0000
     25 H3          7.6713   -1.9951   -0.3441 H         1 <0>         0.0000
     26 H4          8.2323   -2.8793   -1.7758 H         1 <0>         0.0000
     27 H5          8.1599   -5.7527   -0.6240 H         1 <0>         0.0000
     28 H6          6.4698   -6.0859   -1.0440 H         1 <0>         0.0000
     29 H7          7.5125   -5.2358   -2.1909 H         1 <0>         0.0000
     30 H8          2.8872   -4.1345   -2.0879 H         1 <0>         0.0000
     31 H9          2.1738   -5.7124   -1.7140 H         1 <0>         0.0000
     32 H10         3.5794   -5.1449   -0.8119 H         1 <0>         0.0000
     33 H11         0.7565   -4.7621    1.6349 H         1 <0>         0.0000
     34 H12         2.3282   -5.5113    1.3711 H         1 <0>         0.0000
     35 H13         0.9158   -6.0685    0.4541 H         1 <0>         0.0000
     36 H14        -0.3050   -3.3025   -0.2384 H         1 <0>         0.0000
     37 H15        -0.1179   -4.6740   -1.3329 H         1 <0>         0.0000
     38 H16         0.5457   -3.0900   -1.7676 H         1 <0>         0.0000
     39 H17        -0.9522   -0.7139    1.8767 H         1 <0>         0.0000
     40 H18        -0.0213    0.7135    1.3710 H         1 <0>         0.0000
     41 H19         0.4945   -0.2269    2.7876 H         1 <0>         0.0000
     42 H20         7.3727   -4.5944    1.4964 H         1 <0>         0.0000
     43 H21         5.7222   -4.9884    1.0394 H         1 <0>         0.0000
     44 H22         5.0986   -2.3982    3.6018 H         1 <0>         0.0000
     45 H23         5.1177   -4.1388    3.2917 H         1 <0>         0.0000
     46 H24         6.7931   -2.1847    1.6686 H         1 <0>         0.0000
     47 H25         2.6549   -2.1876   -0.4426 H         1 <0>         0.0000
     48 H26         5.9671   -3.6628   -1.0661 H         1 <0>         0.0000
     49 H27         0.8872   -0.9429   -0.0594 H         1 <0>         0.0000
     50 H28         3.8157   -4.1378    1.3829 H         1 <0>         0.0000
@<TRIPOS>BOND
     1    1   18 am
     2    1   20 2
     3    2   12 1
     4    2   17 am
     5    2   21 2
     6    3   13 1
     7    3   16 am
     8    3   22 2
     9    4   14 1
    10    5   14 1
    11    6   15 1
    12    7   15 1
    13    8   15 1
    14    9   16 1
    15   10   12 1
    16   10   14 1
    17   11   12 1
    18   11   18 1
    19   13   15 1
    20   13   17 1
    21   18   19 1
    22    1   23 1
    23    4   24 1
    24    4   25 1
    25    4   26 1
    26    5   27 1
    27    5   28 1
    28    5   29 1
    29    6   30 1
    30    6   31 1
    31    6   32 1
    32    7   33 1
    33    7   34 1
    34    7   35 1
    35    8   36 1
    36    8   37 1
    37    8   38 1
    38    9   39 1
    39    9   40 1
    40    9   41 1
    41   10   42 1
    42   10   43 1
    43   11   44 1
    44   11   45 1
    45   12   46 1
    46   13   47 1
    47   14   48 1
    48   16   49 1
    49   17   50 1
@<TRIPOS>MOLECULE
LIGAND
   50    49     0     0     0
SMALL
NO_CHARGES

@<TRIPOS>ATOM
      1 C1          7.4494   -6.0057    1.5877 C.2       1 <0>         0.0000
      2 C2          4.7609   -2.3304    1.0158 C.2       1 <0>         0.0000
      3 C3          1.6238   -2.1763    1.4428 C.2       1 <0>         0.0000
      4 C4          5.5916   -1.8934    4.5978 C.3       1 <0>         0.0000
      5 C5          7.0929    0.0222    4.0244 C.3       1 <0>         0.0000
      6 C6          2.6382   -4.8237   -1.2732 C.3       1 <0>         0.0000
      7 C7          1.4139   -5.1834    0.8654 C.3       1 <0>         0.0000
      8 C8          0.3871   -3.7862   -0.9377 C.3       1 <0>         0.0000
      9 C9          0.0532   -0.2939    1.7895 C.3       1 <0>         0.0000
     10 C10         6.8665   -1.8668    2.3816 C.3       1 <0>         0.0000
     11 C11         6.8055   -3.7427    0.6616 C.3       1 <0>         0.0000
     12 C12         5.9953   -2.9363    1.6910 C.3       1 <0>         0.0000
     13 C13         2.4245   -2.8999    0.3599 C.3       1 <0>         0.0000
     14 C14         6.1374   -1.0321    3.4575 C.3       1 <0>         0.0000
     15 C15         1.7114   -4.1488   -0.2382 C.3       1 <0>         0.0000
     16 N1          0.8675   -1.1285    0.9389 N.am      1 <0>         0.0000
     17 N2          3.6959   -3.2182    0.9688 N.am      1 <0>         0.0000
     18 N3          7.7018   -4.6947    1.2608 N.am      1 <0>         0.0000
     19 O1          8.9648   -4.2050    1.5307 O.3       1 <0>         0.0000
     20 O2          6.3911   -6.6048    1.4210 O.2       1 <0>         0.0000
     21 O3          4.7482   -1.1914    0.5542 O.2       1 <0>         0.0000
     22 O4          1.6741   -2.4892    2.6314 O.2       1 <0>         0.0000
     23 H1          8.3147   -6.5219    2.0397 H         1 <0>         0.0000
     24 H2          6.4006   -2.4456    5.0885 H         1 <0>         0.0000
     25 H3          4.8609   -2.6219    4.2310 H         1 <0>         0.0000
     26 H4          5.1097   -1.2817    5.3659 H         1 <0>         0.0000
     27 H5          7.9623   -0.4436    4.5008 H         1 <0>         0.0000
     28 H6          7.4545    0.6861    3.2321 H         1 <0>         0.0000
     29 H7          6.5886    0.6429    4.7727 H         1 <0>         0.0000
     30 H8          2.8872   -4.1345   -2.0879 H         1 <0>         0.0000
     31 H9          2.1738   -5.7124   -1.7140 H         1 <0>         0.0000
     32 H10         3.5794   -5.1449   -0.8119 H         1 <0>         0.0000
     33 H11         0.7565   -4.7621    1.6349 H         1 <0>         0.0000
     34 H12         2.3282   -5.5113    1.3711 H         1 <0>         0.0000
     35 H13         0.9158   -6.0685    0.4541 H         1 <0>         0.0000
     36 H14        -0.3050   -3.3025   -0.2384 H         1 <0>         0.0000
     37 H15        -0.1179   -4.6740   -1.3329 H         1 <0>         0.0000
     38 H16         0.5457   -3.0900   -1.7676 H         1 <0>         0.0000
     39 H17        -0.9522   -0.7139    1.8767 H         1 <0>         0.0000
     40 H18        -0.0213    0.7135    1.3710 H         1 <0>         0.0000
     41 H19         0.4945   -0.2269    2.7876 H         1 <0>         0.0000
     42 H20         7.7322   -2.3581    2.8457 H         1 <0>         0.0000
     43 H21         7.2705   -1.1813    1.6250 H         1 <0>         0.0000
     44 H22         6.1354   -4.3010   -0.0008 H         1 <0>         0.0000
     45 H23         7.4165   -3.0830    0.0367 H         1 <0>         0.0000
     46 H24         5.6479   -3.6501    2.4472 H         1 <0>         0.0000
     47 H25         2.6549   -2.1876   -0.4426 H         1 <0>         0.0000
     48 H26         5.2955   -0.5008    2.9986 H         1 <0>         0.0000
     49 H27         0.8872   -0.9429   -0.0594 H         1 <0>         0.0000
     50 H28         3.8157   -4.1378    1.3829 H         1 <0>         0.0000
@<TRIPOS>BOND
     1    1   18 am
     2    1   20 2
     3    2   12 1
     4    2   17 am
     5    2   21 2
     6    3   13 1
     7    3   16 am
     8    3   22 2
     9    4   14 1
    10    5   14 1
    11    6   15 1
    12    7   15 1
    13    8   15 1
    14    9   16 1
    15   10   12 1
    16   10   14 1
    17   11   12 1
    18   11   18 1
    19   13   15 1
    20   13   17 1
    21   18   19 1
    22    1   23 1
    23    4   24 1
    24    4   25 1
    25    4   26 1
    26    5   27 1
    27    5   28 1
    28    5   29 1
    29    6   30 1
    30    6   31 1
    31    6   32 1
    32    7   33 1
    33    7   34 1
    34    7   35 1
    35    8   36 1
    36    8   37 1
    37    8   38 1
    38    9   39 1
    39    9   40 1
    40    9   41 1
    41   10   42 1
    42   10   43 1
    43   11   44 1
    44   11   45 1
    45   12   46 1
    46   13   47 1
    47   14   48 1
    48   16   49 1
    49   17   50 1
@<TRIPOS>MOLECULE
LIGAND
   50    49     0     0     0
SMALL
NO_CHARGES

@<TRIPOS>ATOM
      1 C1          6.6167   -2.7186   -1.6426 C.2       1 <0>         0.0000
      2 C2          4.7609   -2.3304    1.0158 C.2       1 <0>         0.0000
      3 C3          1.6238   -2.1763    1.4428 C.2       1 <0>         0.0000
      4 C4          5.5916   -1.8934    4.5978 C.3       1 <0>         0.0000
      5 C5          7.0929    0.0222    4.0244 C.3       1 <0>         0.0000
      6 C6          2.6382   -4.8237   -1.2732 C.3       1 <0>         0.0000
      7 C7          1.4139   -5.1834    0.8654 C.3       1 <0>         0.0000
      8 C8          0.3871   -3.7862   -0.9377 C.3       1 <0>         0.0000
      9 C9          0.0532   -0.2939    1.7895 C.3       1 <0>         0.0000
     10 C10         6.8665   -1.8668    2.3816 C.3       1 <0>         0.0000
     11 C11         6.8055   -3.7427    0.6616 C.3       1 <0>         0.0000
     12 C12         5.9953   -2.9363    1.6910 C.3       1 <0>         0.0000
     13 C13         2.4245   -2.8999    0.3599 C.3       1 <0>         0.0000
     14 C14         6.1374   -1.0321    3.4575 C.3       1 <0>         0.0000
     15 C15         1.7114   -4.1488   -0.2382 C.3       1 <0>         0.0000
     16 N1          0.8675   -1.1285    0.9389 N.am      1 <0>         0.0000
     17 N2          3.6959   -3.2182    0.9688 N.am      1 <0>         0.0000
     18 N3          7.2606   -2.9528   -0.4510 N.am      1 <0>         0.0000
     19 O1          8.4998   -2.3693   -0.2736 O.3       1 <0>         0.0000
     20 O2          5.5167   -3.1530   -1.9712 O.2       1 <0>         0.0000
     21 O3          4.7482   -1.1914    0.5542 O.2       1 <0>         0.0000
     22 O4          1.6741   -2.4892    2.6314 O.2       1 <0>         0.0000
     23 H1          7.1876   -2.0725   -2.3326 H         1 <0>         0.0000
     24 H2          6.4006   -2.4456    5.0885 H         1 <0>         0.0000
     25 H3          4.8609   -2.6219    4.2310 H         1 <0>         0.0000
     26 H4          5.1097   -1.2817    5.3659 H         1 <0>         0.0000
     27 H5          7.9623   -0.4436    4.5008 H         1 <0>         0.0000
     28 H6          7.4545    0.6861    3.2321 H         1 <0>         0.0000
     29 H7          6.5886    0.6429    4.7727 H         1 <0>         0.0000
     30 H8          2.8872   -4.1345   -2.0879 H         1 <0>         0.0000
     31 H9          2.1738   -5.7124   -1.7140 H         1 <0>         0.0000
     32 H10         3.5794   -5.1449   -0.8119 H         1 <0>         0.0000
     33 H11         0.7565   -4.7621    1.6349 H         1 <0>         0.0000
     34 H12         2.3282   -5.5113    1.3711 H         1 <0>         0.0000
     35 H13         0.9158   -6.0685    0.4541 H         1 <0>         0.0000
     36 H14        -0.3050   -3.3025   -0.2384 H         1 <0>         0.0000
     37 H15        -0.1179   -4.6740   -1.3329 H         1 <0>         0.0000
     38 H16         0.5457   -3.0900   -1.7676 H         1 <0>         0.0000
     39 H17        -0.9522   -0.7139    1.8767 H         1 <0>         0.0000
     40 H18        -0.0213    0.7135    1.3710 H         1 <0>         0.0000
     41 H19         0.4945   -0.2269    2.7876 H         1 <0>         0.0000
     42 H20         7.7322   -2.3581    2.8457 H         1 <0>         0.0000
     43 H21         7.2705   -1.1813    1.6250 H         1 <0>         0.0000
     44 H22         7.6920   -4.1821    1.1312 H         1 <0>         0.0000
     45 H23         6.2097   -4.5617    0.2452 H         1 <0>         0.0000
     46 H24         5.6479   -3.6501    2.4472 H         1 <0>         0.0000
     47 H25         2.6549   -2.1876   -0.4426 H         1 <0>         0.0000
     48 H26         5.2955   -0.5008    2.9986 H         1 <0>         0.0000
     49 H27         0.8872   -0.9429   -0.0594 H         1 <0>         0.0000
     50 H28         3.8157   -4.1378    1.3829 H         1 <0>         0.0000
@<TRIPOS>BOND
     1    1   18 am
     2    1   20 2
     3    2   12 1
     4    2   17 am
     5    2   21 2
     6    3   13 1
     7    3   16 am
     8    3   22 2
     9    4   14 1
    10    5   14 1
    11    6   15 1
    12    7   15 1
    13    8   15 1
    14    9   16 1
    15   10   12 1
    16   10   14 1
    17   11   12 1
    18   11   18 1
    19   13   15 1
    20   13   17 1
    21   18   19 1
    22    1   23 1
    23    4   24 1
    24    4   25 1
    25    4   26 1
    26    5   27 1
    27    5   28 1
    28    5   29 1
    29    6   30 1
    30    6   31 1
    31    6   32 1
    32    7   33 1
    33    7   34 1
    34    7   35 1
    35    8   36 1
    36    8   37 1
    37    8   38 1
    38    9   39 1
    39    9   40 1
    40    9   41 1
    41   10   42 1
    42   10   43 1
    43   11   44 1
    44   11   45 1
    45   12   46 1
    46   13   47 1
    47   14   48 1
    48   16   49 1
    49   17   50 1
@<TRIPOS>MOLECULE
LIGAND
   50    49     0     0     0
SMALL
NO_CHARGES

@<TRIPOS>ATOM
      1 C1          7.4494   -6.0057    1.5877 C.2       1 <0>         0.0000
      2 C2          4.7609   -2.3304    1.0158 C.2       1 <0>         0.0000
      3 C3          1.4114   -2.9063    1.5049 C.2       1 <0>         0.0000
      4 C4          5.5916   -1.8934    4.5978 C.3       1 <0>         0.0000
      5 C5          7.0929    0.0222    4.0244 C.3       1 <0>         0.0000
      6 C6          3.1857   -3.8003   -1.8813 C.3       1 <0>         0.0000
      7 C7          1.9543   -5.3076   -0.3278 C.3       1 <0>         0.0000
      8 C8          0.7370   -3.4626   -1.4991 C.3       1 <0>         0.0000
      9 C9         -0.5781   -1.7107    2.3670 C.3       1 <0>         0.0000
     10 C10         6.8665   -1.8668    2.3816 C.3       1 <0>         0.0000
     11 C11         6.8055   -3.7427    0.6616 C.3       1 <0>         0.0000
     12 C12         5.9953   -2.9363    1.6910 C.3       1 <0>         0.0000
     13 C13         2.4245   -2.8999    0.3599 C.3       1 <0>         0.0000
     14 C14         6.1374   -1.0321    3.4575 C.3       1 <0>         0.0000
     15 C15         2.0646   -3.8508   -0.8201 C.3       1 <0>         0.0000
     16 N1          0.4604   -1.9038    1.3835 N.am      1 <0>         0.0000
     17 N2          3.6959   -3.2182    0.9688 N.am      1 <0>         0.0000
     18 N3          7.7018   -4.6947    1.2608 N.am      1 <0>         0.0000
     19 O1          8.9648   -4.2050    1.5307 O.3       1 <0>         0.0000
     20 O2          6.3911   -6.6048    1.4210 O.2       1 <0>         0.0000
     21 O3          4.7482   -1.1914    0.5542 O.2       1 <0>         0.0000
     22 O4          1.4623   -3.7076    2.4368 O.2       1 <0>         0.0000
     23 H1          8.3147   -6.5219    2.0397 H         1 <0>         0.0000
     24 H2          6.4006   -2.4456    5.0885 H         1 <0>         0.0000
     25 H3          4.8609   -2.6219    4.2310 H         1 <0>         0.0000
     26 H4          5.1097   -1.2817    5.3659 H         1 <0>         0.0000
     27 H5          7.9623   -0.4436    4.5008 H         1 <0>         0.0000
     28 H6          7.4545    0.6861    3.2321 H         1 <0>         0.0000
     29 H7          6.5886    0.6429    4.7727 H         1 <0>         0.0000
     30 H8          3.3133   -2.7845   -2.2720 H         1 <0>         0.0000
     31 H9          2.9723   -4.4622   -2.7277 H         1 <0>         0.0000
     32 H10         4.1465   -4.1154   -1.4578 H         1 <0>         0.0000
     33 H11         1.1705   -5.4095    0.4319 H         1 <0>         0.0000
     34 H12         2.8879   -5.6535    0.1281 H         1 <0>         0.0000
     35 H13         1.7055   -5.9859   -1.1517 H         1 <0>         0.0000
     36 H14        -0.0909   -3.4848   -0.7807 H         1 <0>         0.0000
     37 H15         0.4812   -4.1517   -2.3109 H         1 <0>         0.0000
     38 H16         0.7762   -2.4505   -1.9146 H         1 <0>         0.0000
     39 H17        -1.4589   -2.3023    2.1044 H         1 <0>         0.0000
     40 H18        -0.8634   -0.6562    2.4133 H         1 <0>         0.0000
     41 H19        -0.2264   -2.0222    3.3542 H         1 <0>         0.0000
     42 H20         7.7322   -2.3581    2.8457 H         1 <0>         0.0000
     43 H21         7.2705   -1.1813    1.6250 H         1 <0>         0.0000
     44 H22         6.1354   -4.3010   -0.0008 H         1 <0>         0.0000
     45 H23         7.4165   -3.0830    0.0367 H         1 <0>         0.0000
     46 H24         5.6479   -3.6501    2.4472 H         1 <0>         0.0000
     47 H25         2.5279   -1.8729   -0.0129 H         1 <0>         0.0000
     48 H26         5.2955   -0.5008    2.9986 H         1 <0>         0.0000
     49 H27         0.4960   -1.2867    0.5777 H         1 <0>         0.0000
     50 H28         3.8157   -4.1378    1.3829 H         1 <0>         0.0000
@<TRIPOS>BOND
     1    1   18 am
     2    1   20 2
     3    2   12 1
     4    2   17 am
     5    2   21 2
     6    3   13 1
     7    3   16 am
     8    3   22 2
     9    4   14 1
    10    5   14 1
    11    6   15 1
    12    7   15 1
    13    8   15 1
    14    9   16 1
    15   10   12 1
    16   10   14 1
    17   11   12 1
    18   11   18 1
    19   13   15 1
    20   13   17 1
    21   18   19 1
    22    1   23 1
    23    4   24 1
    24    4   25 1
    25    4   26 1
    26    5   27 1
    27    5   28 1
    28    5   29 1
    29    6   30 1
    30    6   31 1
    31    6   32 1
    32    7   33 1
    33    7   34 1
    34    7   35 1
    35    8   36 1
    36    8   37 1
    37    8   38 1
    38    9   39 1
    39    9   40 1
    40    9   41 1
    41   10   42 1
    42   10   43 1
    43   11   44 1
    44   11   45 1
    45   12   46 1
    46   13   47 1
    47   14   48 1
    48   16   49 1
    49   17   50 1
@<TRIPOS>MOLECULE
LIGAND
   50    49     0     0     0
SMALL
NO_CHARGES

@<TRIPOS>ATOM
      1 C1          9.0094   -4.5043    1.6394 C.2       1 <0>         0.0000
      2 C2          4.7609   -2.3304    1.0158 C.2       1 <0>         0.0000
      3 C3          1.3743   -3.6105    1.2141 C.2       1 <0>         0.0000
      4 C4          5.5916   -1.8934    4.5978 C.3       1 <0>         0.0000
      5 C5          7.0929    0.0222    4.0244 C.3       1 <0>         0.0000
      6 C6          3.5112   -2.5312   -1.8976 C.3       1 <0>         0.0000
      7 C7          2.5798   -4.7765   -1.3563 C.3       1 <0>         0.0000
      8 C8          1.0336   -2.8618   -1.8044 C.3       1 <0>         0.0000
      9 C9         -0.8899   -3.3247    2.1744 C.3       1 <0>         0.0000
     10 C10         6.8665   -1.8668    2.3816 C.3       1 <0>         0.0000
     11 C11         6.8055   -3.7427    0.6616 C.3       1 <0>         0.0000
     12 C12         5.9953   -2.9363    1.6910 C.3       1 <0>         0.0000
     13 C13         2.4245   -2.8999    0.3599 C.3       1 <0>         0.0000
     14 C14         6.1374   -1.0321    3.4575 C.3       1 <0>         0.0000
     15 C15         2.3718   -3.2623   -1.1540 C.3       1 <0>         0.0000
     16 N1          0.2223   -2.8565    1.3827 N.am      1 <0>         0.0000
     17 N2          3.6959   -3.2182    0.9688 N.am      1 <0>         0.0000
     18 N3          7.7018   -4.6947    1.2608 N.am      1 <0>         0.0000
     19 O1          7.1560   -5.9460    1.4704 O.3       1 <0>         0.0000
     20 O2          9.6534   -3.4652    1.5292 O.2       1 <0>         0.0000
     21 O3          4.7482   -1.1914    0.5542 O.2       1 <0>         0.0000
     22 O4          1.5569   -4.7218    1.7089 O.2       1 <0>         0.0000
     23 H1          9.4767   -5.4035    2.0784 H         1 <0>         0.0000
     24 H2          6.4006   -2.4456    5.0885 H         1 <0>         0.0000
     25 H3          4.8609   -2.6219    4.2310 H         1 <0>         0.0000
     26 H4          5.1097   -1.2817    5.3659 H         1 <0>         0.0000
     27 H5          7.9623   -0.4436    4.5008 H         1 <0>         0.0000
     28 H6          7.4545    0.6861    3.2321 H         1 <0>         0.0000
     29 H7          6.5886    0.6429    4.7727 H         1 <0>         0.0000
     30 H8          3.4182   -1.4447   -1.7906 H         1 <0>         0.0000
     31 H9          3.5120   -2.7653   -2.9677 H         1 <0>         0.0000
     32 H10         4.4918   -2.8203   -1.5020 H         1 <0>         0.0000
     33 H11         1.7979   -5.3538   -0.8491 H         1 <0>         0.0000
     34 H12         3.5395   -5.1121   -0.9494 H         1 <0>         0.0000
     35 H13         2.5489   -5.0416   -2.4191 H         1 <0>         0.0000
     36 H14         0.1926   -3.3589   -1.3070 H         1 <0>         0.0000
     37 H15         0.9978   -3.1431   -2.8622 H         1 <0>         0.0000
     38 H16         0.8573   -1.7835   -1.7352 H         1 <0>         0.0000
     39 H17        -1.5882   -3.8849    1.5471 H         1 <0>         0.0000
     40 H18        -1.4189   -2.4783    2.6208 H         1 <0>         0.0000
     41 H19        -0.5348   -3.9781    2.9759 H         1 <0>         0.0000
     42 H20         7.7322   -2.3581    2.8457 H         1 <0>         0.0000
     43 H21         7.2705   -1.1813    1.6250 H         1 <0>         0.0000
     44 H22         6.1354   -4.3010   -0.0008 H         1 <0>         0.0000
     45 H23         7.4165   -3.0830    0.0367 H         1 <0>         0.0000
     46 H24         5.6479   -3.6501    2.4472 H         1 <0>         0.0000
     47 H25         2.3043   -1.8161    0.4837 H         1 <0>         0.0000
     48 H26         5.2955   -0.5008    2.9986 H         1 <0>         0.0000
     49 H27         0.1595   -1.9470    0.9352 H         1 <0>         0.0000
     50 H28         3.8157   -4.1378    1.3829 H         1 <0>         0.0000
@<TRIPOS>BOND
     1    1   18 am
     2    1   20 2
     3    2   12 1
     4    2   17 am
     5    2   21 2
     6    3   13 1
     7    3   16 am
     8    3   22 2
     9    4   14 1
    10    5   14 1
    11    6   15 1
    12    7   15 1
    13    8   15 1
    14    9   16 1
    15   10   12 1
    16   10   14 1
    17   11   12 1
    18   11   18 1
    19   13   15 1
    20   13   17 1
    21   18   19 1
    22    1   23 1
    23    4   24 1
    24    4   25 1
    25    4   26 1
    26    5   27 1
    27    5   28 1
    28    5   29 1
    29    6   30 1
    30    6   31 1
    31    6   32 1
    32    7   33 1
    33    7   34 1
    34    7   35 1
    35    8   36 1
    36    8   37 1
    37    8   38 1
    38    9   39 1
    39    9   40 1
    40    9   41 1
    41   10   42 1
    42   10   43 1
    43   11   44 1
    44   11   45 1
    45   12   46 1
    46   13   47 1
    47   14   48 1
    48   16   49 1
    49   17   50 1
@<TRIPOS>MOLECULE
LIGAND
   50    49     0     0     0
SMALL
NO_CHARGES

@<TRIPOS>ATOM
      1 C1          6.7648   -3.5849   -1.7822 C.2       1 <0>         0.0000
      2 C2          4.7609   -2.3304    1.0158 C.2       1 <0>         0.0000
      3 C3          1.4114   -2.9063    1.5049 C.2       1 <0>         0.0000
      4 C4          4.8998   -3.3220    4.5808 C.3       1 <0>         0.0000
      5 C5          5.9126   -1.1117    5.1647 C.3       1 <0>         0.0000
      6 C6          3.1857   -3.8003   -1.8813 C.3       1 <0>         0.0000
      7 C7          1.9543   -5.3076   -0.3278 C.3       1 <0>         0.0000
      8 C8          0.7370   -3.4626   -1.4991 C.3       1 <0>         0.0000
      9 C9         -0.5781   -1.7107    2.3670 C.3       1 <0>         0.0000
     10 C10         6.4405   -2.1272    2.9267 C.3       1 <0>         0.0000
     11 C11         7.1342   -3.0688    0.6654 C.3       1 <0>         0.0000
     12 C12         5.9953   -2.9363    1.6910 C.3       1 <0>         0.0000
     13 C13         2.4245   -2.8999    0.3599 C.3       1 <0>         0.0000
     14 C14         5.3645   -1.9750    4.0244 C.3       1 <0>         0.0000
     15 C15         2.0646   -3.8508   -0.8201 C.3       1 <0>         0.0000
     16 N1          0.4604   -1.9038    1.3835 N.am      1 <0>         0.0000
     17 N2          3.6959   -3.2182    0.9688 N.am      1 <0>         0.0000
     18 N3          6.8025   -3.9159   -0.4486 N.am      1 <0>         0.0000
     19 O1          6.4869   -5.2168   -0.1083 O.3       1 <0>         0.0000
     20 O2          7.0133   -2.4838   -2.2643 O.2       1 <0>         0.0000
     21 O3          4.7482   -1.1914    0.5542 O.2       1 <0>         0.0000
     22 O4          1.4623   -3.7076    2.4368 O.2       1 <0>         0.0000
     23 H1          6.4781   -4.4264   -2.4374 H         1 <0>         0.0000
     24 H2          5.7423   -3.8772    5.0075 H         1 <0>         0.0000
     25 H3          4.4501   -3.9417    3.7978 H         1 <0>         0.0000
     26 H4          4.1642   -3.1925    5.3800 H         1 <0>         0.0000
     27 H5          6.7922   -1.5734    5.6261 H         1 <0>         0.0000
     28 H6          6.2016   -0.1209    4.7985 H         1 <0>         0.0000
     29 H7          5.1564   -0.9697    5.9440 H         1 <0>         0.0000
     30 H8          3.3133   -2.7845   -2.2720 H         1 <0>         0.0000
     31 H9          2.9723   -4.4622   -2.7277 H         1 <0>         0.0000
     32 H10         4.1465   -4.1154   -1.4578 H         1 <0>         0.0000
     33 H11         1.1705   -5.4095    0.4319 H         1 <0>         0.0000
     34 H12         2.8879   -5.6535    0.1281 H         1 <0>         0.0000
     35 H13         1.7055   -5.9859   -1.1517 H         1 <0>         0.0000
     36 H14        -0.0909   -3.4848   -0.7807 H         1 <0>         0.0000
     37 H15         0.4812   -4.1517   -2.3109 H         1 <0>         0.0000
     38 H16         0.7762   -2.4505   -1.9146 H         1 <0>         0.0000
     39 H17        -1.4589   -2.3023    2.1044 H         1 <0>         0.0000
     40 H18        -0.8634   -0.6562    2.4133 H         1 <0>         0.0000
     41 H19        -0.2264   -2.0222    3.3542 H         1 <0>         0.0000
     42 H20         7.3251   -2.6069    3.3666 H         1 <0>         0.0000
     43 H21         6.7588   -1.1249    2.6110 H         1 <0>         0.0000
     44 H22         7.3992   -2.0872    0.2584 H         1 <0>         0.0000
     45 H23         8.0331   -3.4907    1.1269 H         1 <0>         0.0000
     46 H24         5.7385   -3.9535    2.0094 H         1 <0>         0.0000
     47 H25         2.5279   -1.8729   -0.0129 H         1 <0>         0.0000
     48 H26         4.4913   -1.4577    3.6101 H         1 <0>         0.0000
     49 H27         0.4960   -1.2867    0.5777 H         1 <0>         0.0000
     50 H28         3.8157   -4.1378    1.3829 H         1 <0>         0.0000
@<TRIPOS>BOND
     1    1   18 am
     2    1   20 2
     3    2   12 1
     4    2   17 am
     5    2   21 2
     6    3   13 1
     7    3   16 am
     8    3   22 2
     9    4   14 1
    10    5   14 1
    11    6   15 1
    12    7   15 1
    13    8   15 1
    14    9   16 1
    15   10   12 1
    16   10   14 1
    17   11   12 1
    18   11   18 1
    19   13   15 1
    20   13   17 1
    21   18   19 1
    22    1   23 1
    23    4   24 1
    24    4   25 1
    25    4   26 1
    26    5   27 1
    27    5   28 1
    28    5   29 1
    29    6   30 1
    30    6   31 1
    31    6   32 1
    32    7   33 1
    33    7   34 1
    34    7   35 1
    35    8   36 1
    36    8   37 1
    37    8   38 1
    38    9   39 1
    39    9   40 1
    40    9   41 1
    41   10   42 1
    42   10   43 1
    43   11   44 1
    44   11   45 1
    45   12   46 1
    46   13   47 1
    47   14   48 1
    48   16   49 1
    49   17   50 1
@<TRIPOS>MOLECULE
LIGAND
   50    49     0     0     0
SMALL
NO_CHARGES

@<TRIPOS>ATOM
      1 C1          8.9310   -2.5277    0.0294 C.2       1 <0>         0.0000
      2 C2          4.7609   -2.3304    1.0158 C.2       1 <0>         0.0000
      3 C3          1.4114   -2.9063    1.5049 C.2       1 <0>         0.0000
      4 C4          5.5916   -1.8934    4.5978 C.3       1 <0>         0.0000
      5 C5          7.0929    0.0222    4.0244 C.3       1 <0>         0.0000
      6 C6          3.1857   -3.8003   -1.8813 C.3       1 <0>         0.0000
      7 C7          1.9543   -5.3076   -0.3278 C.3       1 <0>         0.0000
      8 C8          0.7370   -3.4626   -1.4991 C.3       1 <0>         0.0000
      9 C9         -0.5781   -1.7107    2.3670 C.3       1 <0>         0.0000
     10 C10         6.8665   -1.8668    2.3816 C.3       1 <0>         0.0000
     11 C11         6.8055   -3.7427    0.6616 C.3       1 <0>         0.0000
     12 C12         5.9953   -2.9363    1.6910 C.3       1 <0>         0.0000
     13 C13         2.4245   -2.8999    0.3599 C.3       1 <0>         0.0000
     14 C14         6.1374   -1.0321    3.4575 C.3       1 <0>         0.0000
     15 C15         2.0646   -3.8508   -0.8201 C.3       1 <0>         0.0000
     16 N1          0.4604   -1.9038    1.3835 N.am      1 <0>         0.0000
     17 N2          3.6959   -3.2182    0.9688 N.am      1 <0>         0.0000
     18 N3          7.6315   -2.9222   -0.1830 N.am      1 <0>         0.0000
     19 O1          7.0188   -2.4912   -1.3434 O.3       1 <0>         0.0000
     20 O2          9.6275   -2.8139    0.9986 O.2       1 <0>         0.0000
     21 O3          4.7482   -1.1914    0.5542 O.2       1 <0>         0.0000
     22 O4          1.4623   -3.7076    2.4368 O.2       1 <0>         0.0000
     23 H1          9.3375   -1.8953   -0.7795 H         1 <0>         0.0000
     24 H2          6.4006   -2.4456    5.0885 H         1 <0>         0.0000
     25 H3          4.8609   -2.6219    4.2310 H         1 <0>         0.0000
     26 H4          5.1097   -1.2817    5.3659 H         1 <0>         0.0000
     27 H5          7.9623   -0.4436    4.5008 H         1 <0>         0.0000
     28 H6          7.4545    0.6861    3.2321 H         1 <0>         0.0000
     29 H7          6.5886    0.6429    4.7727 H         1 <0>         0.0000
     30 H8          3.3133   -2.7845   -2.2720 H         1 <0>         0.0000
     31 H9          2.9723   -4.4622   -2.7277 H         1 <0>         0.0000
     32 H10         4.1465   -4.1154   -1.4578 H         1 <0>         0.0000
     33 H11         1.1705   -5.4095    0.4319 H         1 <0>         0.0000
     34 H12         2.8879   -5.6535    0.1281 H         1 <0>         0.0000
     35 H13         1.7055   -5.9859   -1.1517 H         1 <0>         0.0000
     36 H14        -0.0909   -3.4848   -0.7807 H         1 <0>         0.0000
     37 H15         0.4812   -4.1517   -2.3109 H         1 <0>         0.0000
     38 H16         0.7762   -2.4505   -1.9146 H         1 <0>         0.0000
     39 H17        -1.4589   -2.3023    2.1044 H         1 <0>         0.0000
     40 H18        -0.8634   -0.6562    2.4133 H         1 <0>         0.0000
     41 H19        -0.2264   -2.0222    3.3542 H         1 <0>         0.0000
     42 H20         7.7322   -2.3581    2.8457 H         1 <0>         0.0000
     43 H21         7.2705   -1.1813    1.6250 H         1 <0>         0.0000
     44 H22         7.4659   -4.4552    1.1672 H         1 <0>         0.0000
     45 H23         6.1454   -4.3134    0.0001 H         1 <0>         0.0000
     46 H24         5.6479   -3.6501    2.4472 H         1 <0>         0.0000
     47 H25         2.5279   -1.8729   -0.0129 H         1 <0>         0.0000
     48 H26         5.2955   -0.5008    2.9986 H         1 <0>         0.0000
     49 H27         0.4960   -1.2867    0.5777 H         1 <0>         0.0000
     50 H28         3.8157   -4.1378    1.3829 H         1 <0>         0.0000
@<TRIPOS>BOND
     1    1   18 am
     2    1   20 2
     3    2   12 1
     4    2   17 am
     5    2   21 2
     6    3   13 1
     7    3   16 am
     8    3   22 2
     9    4   14 1
    10    5   14 1
    11    6   15 1
    12    7   15 1
    13    8   15 1
    14    9   16 1
    15   10   12 1
    16   10   14 1
    17   11   12 1
    18   11   18 1
    19   13   15 1
    20   13   17 1
    21   18   19 1
    22    1   23 1
    23    4   24 1
    24    4   25 1
    25    4   26 1
    26    5   27 1
    27    5   28 1
    28    5   29 1
    29    6   30 1
    30    6   31 1
    31    6   32 1
    32    7   33 1
    33    7   34 1
    34    7   35 1
    35    8   36 1
    36    8   37 1
    37    8   38 1
    38    9   39 1
    39    9   40 1
    40    9   41 1
    41   10   42 1
    42   10   43 1
    43   11   44 1
    44   11   45 1
    45   12   46 1
    46   13   47 1
    47   14   48 1
    48   16   49 1
    49   17   50 1
@<TRIPOS>MOLECULE
LIGAND
   50    49     0     0     0
SMALL
NO_CHARGES

@<TRIPOS>ATOM
      1 C1          4.8014   -1.1421    4.3182 C.2       1 <0>         0.0000
      2 C2          4.7609   -2.3304    1.0158 C.2       1 <0>         0.0000
      3 C3          1.4114   -2.9063    1.5049 C.2       1 <0>         0.0000
      4 C4          7.9668   -2.9805   -0.7195 C.3       1 <0>         0.0000
      5 C5          7.2752   -5.3485   -1.1277 C.3       1 <0>         0.0000
      6 C6          3.1857   -3.8003   -1.8813 C.3       1 <0>         0.0000
      7 C7          1.9543   -5.3076   -0.3278 C.3       1 <0>         0.0000
      8 C8          0.7370   -3.4626   -1.4991 C.3       1 <0>         0.0000
      9 C9         -0.5781   -1.7107    2.3670 C.3       1 <0>         0.0000
     10 C10         6.4903   -4.2069    0.9698 C.3       1 <0>         0.0000
     11 C11         5.6912   -3.2135    3.1734 C.3       1 <0>         0.0000
     12 C12         5.9953   -2.9363    1.6910 C.3       1 <0>         0.0000
     13 C13         2.4245   -2.8999    0.3599 C.3       1 <0>         0.0000
     14 C14         6.8518   -4.0083   -0.5189 C.3       1 <0>         0.0000
     15 C15         2.0646   -3.8508   -0.8201 C.3       1 <0>         0.0000
     16 N1          0.4604   -1.9038    1.3835 N.am      1 <0>         0.0000
     17 N2          3.6959   -3.2182    0.9688 N.am      1 <0>         0.0000
     18 N3          5.7903   -2.0436    4.0042 N.am      1 <0>         0.0000
     19 O1          7.0443   -1.8225    4.5393 O.3       1 <0>         0.0000
     20 O2          3.6358   -1.1801    3.9353 O.2       1 <0>         0.0000
     21 O3          4.7482   -1.1914    0.5542 O.2       1 <0>         0.0000
     22 O4          1.4623   -3.7076    2.4368 O.2       1 <0>         0.0000
     23 H1          5.1422   -0.3267    4.9806 H         1 <0>         0.0000
     24 H2          8.8753   -3.2848   -0.1883 H         1 <0>         0.0000
     25 H3          7.6713   -1.9951   -0.3441 H         1 <0>         0.0000
     26 H4          8.2323   -2.8793   -1.7758 H         1 <0>         0.0000
     27 H5          8.1599   -5.7527   -0.6240 H         1 <0>         0.0000
     28 H6          6.4698   -6.0859   -1.0440 H         1 <0>         0.0000
     29 H7          7.5125   -5.2358   -2.1909 H         1 <0>         0.0000
     30 H8          3.3133   -2.7845   -2.2720 H         1 <0>         0.0000
     31 H9          2.9723   -4.4622   -2.7277 H         1 <0>         0.0000
     32 H10         4.1465   -4.1154   -1.4578 H         1 <0>         0.0000
     33 H11         1.1705   -5.4095    0.4319 H         1 <0>         0.0000
     34 H12         2.8879   -5.6535    0.1281 H         1 <0>         0.0000
     35 H13         1.7055   -5.9859   -1.1517 H         1 <0>         0.0000
     36 H14        -0.0909   -3.4848   -0.7807 H         1 <0>         0.0000
     37 H15         0.4812   -4.1517   -2.3109 H         1 <0>         0.0000
     38 H16         0.7762   -2.4505   -1.9146 H         1 <0>         0.0000
     39 H17        -1.4589   -2.3023    2.1044 H         1 <0>         0.0000
     40 H18        -0.8634   -0.6562    2.4133 H         1 <0>         0.0000
     41 H19        -0.2264   -2.0222    3.3542 H         1 <0>         0.0000
     42 H20         7.3727   -4.5944    1.4964 H         1 <0>         0.0000
     43 H21         5.7222   -4.9884    1.0394 H         1 <0>         0.0000
     44 H22         4.6761   -3.6079    3.2888 H         1 <0>         0.0000
     45 H23         6.3842   -3.9541    3.5861 H         1 <0>         0.0000
     46 H24         6.7931   -2.1847    1.6686 H         1 <0>         0.0000
     47 H25         2.5279   -1.8729   -0.0129 H         1 <0>         0.0000
     48 H26         5.9671   -3.6628   -1.0661 H         1 <0>         0.0000
     49 H27         0.4960   -1.2867    0.5777 H         1 <0>         0.0000
     50 H28         3.8157   -4.1378    1.3829 H         1 <0>         0.0000
@<TRIPOS>BOND
     1    1   18 am
     2    1   20 2
     3    2   12 1
     4    2   17 am
     5    2   21 2
     6    3   13 1
     7    3   16 am
     8    3   22 2
     9    4   14 1
    10    5   14 1
    11    6   15 1
    12    7   15 1
    13    8   15 1
    14    9   16 1
    15   10   12 1
    16   10   14 1
    17   11   12 1
    18   11   18 1
    19   13   15 1
    20   13   17 1
    21   18   19 1
    22    1   23 1
    23    4   24 1
    24    4   25 1
    25    4   26 1
    26    5   27 1
    27    5   28 1
    28    5   29 1
    29    6   30 1
    30    6   31 1
    31    6   32 1
    32    7   33 1
    33    7   34 1
    34    7   35 1
    35    8   36 1
    36    8   37 1
    37    8   38 1
    38    9   39 1
    39    9   40 1
    40    9   41 1
    41   10   42 1
    42   10   43 1
    43   11   44 1
    44   11   45 1
    45   12   46 1
    46   13   47 1
    47   14   48 1
    48   16   49 1
    49   17   50 1
@<TRIPOS>MOLECULE
LIGAND
   50    49     0     0     0
SMALL
NO_CHARGES

@<TRIPOS>ATOM
      1 C1          6.4496   -5.2442   -0.4265 C.2       1 <0>         0.0000
      2 C2          4.7609   -2.3304    1.0158 C.2       1 <0>         0.0000
      3 C3          1.4114   -2.9063    1.5049 C.2       1 <0>         0.0000
      4 C4          4.8998   -3.3220    4.5808 C.3       1 <0>         0.0000
      5 C5          5.9126   -1.1117    5.1647 C.3       1 <0>         0.0000
      6 C6          3.1857   -3.8003   -1.8813 C.3       1 <0>         0.0000
      7 C7          1.9543   -5.3076   -0.3278 C.3       1 <0>         0.0000
      8 C8          0.7370   -3.4626   -1.4991 C.3       1 <0>         0.0000
      9 C9         -0.5781   -1.7107    2.3670 C.3       1 <0>         0.0000
     10 C10         6.4405   -2.1272    2.9267 C.3       1 <0>         0.0000
     11 C11         7.1342   -3.0688    0.6654 C.3       1 <0>         0.0000
     12 C12         5.9953   -2.9363    1.6910 C.3       1 <0>         0.0000
     13 C13         2.4245   -2.8999    0.3599 C.3       1 <0>         0.0000
     14 C14         5.3645   -1.9750    4.0244 C.3       1 <0>         0.0000
     15 C15         2.0646   -3.8508   -0.8201 C.3       1 <0>         0.0000
     16 N1          0.4604   -1.9038    1.3835 N.am      1 <0>         0.0000
     17 N2          3.6959   -3.2182    0.9688 N.am      1 <0>         0.0000
     18 N3          6.8025   -3.9159   -0.4486 N.am      1 <0>         0.0000
     19 O1          6.8526   -3.2928   -1.6802 O.3       1 <0>         0.0000
     20 O2          6.3544   -5.9537    0.5706 O.2       1 <0>         0.0000
     21 O3          4.7482   -1.1914    0.5542 O.2       1 <0>         0.0000
     22 O4          1.4623   -3.7076    2.4368 O.2       1 <0>         0.0000
     23 H1          6.2432   -5.6623   -1.4276 H         1 <0>         0.0000
     24 H2          5.7423   -3.8772    5.0075 H         1 <0>         0.0000
     25 H3          4.4501   -3.9417    3.7978 H         1 <0>         0.0000
     26 H4          4.1642   -3.1925    5.3800 H         1 <0>         0.0000
     27 H5          6.7922   -1.5734    5.6261 H         1 <0>         0.0000
     28 H6          6.2016   -0.1209    4.7985 H         1 <0>         0.0000
     29 H7          5.1564   -0.9697    5.9440 H         1 <0>         0.0000
     30 H8          3.3133   -2.7845   -2.2720 H         1 <0>         0.0000
     31 H9          2.9723   -4.4622   -2.7277 H         1 <0>         0.0000
     32 H10         4.1465   -4.1154   -1.4578 H         1 <0>         0.0000
     33 H11         1.1705   -5.4095    0.4319 H         1 <0>         0.0000
     34 H12         2.8879   -5.6535    0.1281 H         1 <0>         0.0000
     35 H13         1.7055   -5.9859   -1.1517 H         1 <0>         0.0000
     36 H14        -0.0909   -3.4848   -0.7807 H         1 <0>         0.0000
     37 H15         0.4812   -4.1517   -2.3109 H         1 <0>         0.0000
     38 H16         0.7762   -2.4505   -1.9146 H         1 <0>         0.0000
     39 H17        -1.4589   -2.3023    2.1044 H         1 <0>         0.0000
     40 H18        -0.8634   -0.6562    2.4133 H         1 <0>         0.0000
     41 H19        -0.2264   -2.0222    3.3542 H         1 <0>         0.0000
     42 H20         7.3251   -2.6069    3.3666 H         1 <0>         0.0000
     43 H21         6.7588   -1.1249    2.6110 H         1 <0>         0.0000
     44 H22         7.3992   -2.0872    0.2584 H         1 <0>         0.0000
     45 H23         8.0331   -3.4907    1.1269 H         1 <0>         0.0000
     46 H24         5.7385   -3.9535    2.0094 H         1 <0>         0.0000
     47 H25         2.5279   -1.8729   -0.0129 H         1 <0>         0.0000
     48 H26         4.4913   -1.4577    3.6101 H         1 <0>         0.0000
     49 H27         0.4960   -1.2867    0.5777 H         1 <0>         0.0000
     50 H28         3.8157   -4.1378    1.3829 H         1 <0>         0.0000
@<TRIPOS>BOND
     1    1   18 am
     2    1   20 2
     3    2   12 1
     4    2   17 am
     5    2   21 2
     6    3   13 1
     7    3   16 am
     8    3   22 2
     9    4   14 1
    10    5   14 1
    11    6   15 1
    12    7   15 1
    13    8   15 1
    14    9   16 1
    15   10   12 1
    16   10   14 1
    17   11   12 1
    18   11   18 1
    19   13   15 1
    20   13   17 1
    21   18   19 1
    22    1   23 1
    23    4   24 1
    24    4   25 1
    25    4   26 1
    26    5   27 1
    27    5   28 1
    28    5   29 1
    29    6   30 1
    30    6   31 1
    31    6   32 1
    32    7   33 1
    33    7   34 1
    34    7   35 1
    35    8   36 1
    36    8   37 1
    37    8   38 1
    38    9   39 1
    39    9   40 1
    40    9   41 1
    41   10   42 1
    42   10   43 1
    43   11   44 1
    44   11   45 1
    45   12   46 1
    46   13   47 1
    47   14   48 1
    48   16   49 1
    49   17   50 1
@<TRIPOS>MOLECULE
LIGAND
   50    49     0     0     0
SMALL
NO_CHARGES

@<TRIPOS>ATOM
      1 C1          7.1719   -2.7895   -1.4934 C.2       1 <0>         0.0000
      2 C2          4.7609   -2.3304    1.0158 C.2       1 <0>         0.0000
      3 C3          1.6238   -2.1763    1.4428 C.2       1 <0>         0.0000
      4 C4          5.4286   -5.0551    3.9022 C.3       1 <0>         0.0000
      5 C5          5.1681   -3.1669    5.5205 C.3       1 <0>         0.0000
      6 C6          2.6382   -4.8237   -1.2732 C.3       1 <0>         0.0000
      7 C7          1.4139   -5.1834    0.8654 C.3       1 <0>         0.0000
      8 C8          0.3871   -3.7862   -0.9377 C.3       1 <0>         0.0000
      9 C9          0.0532   -0.2939    1.7895 C.3       1 <0>         0.0000
     10 C10         6.0212   -2.6662    3.2096 C.3       1 <0>         0.0000
     11 C11         7.2695   -2.4142    1.0053 C.3       1 <0>         0.0000
     12 C12         5.9953   -2.9363    1.6910 C.3       1 <0>         0.0000
     13 C13         2.4245   -2.8999    0.3599 C.3       1 <0>         0.0000
     14 C14         5.0884   -3.5706    4.0452 C.3       1 <0>         0.0000
     15 C15         1.7114   -4.1488   -0.2382 C.3       1 <0>         0.0000
     16 N1          0.8675   -1.1285    0.9389 N.am      1 <0>         0.0000
     17 N2          3.6959   -3.2182    0.9688 N.am      1 <0>         0.0000
     18 N3          7.5808   -3.1022   -0.2189 N.am      1 <0>         0.0000
     19 O1          8.3919   -4.2098   -0.0662 O.3       1 <0>         0.0000
     20 O2          6.4538   -1.8474   -1.8149 O.2       1 <0>         0.0000
     21 O3          4.7482   -1.1914    0.5542 O.2       1 <0>         0.0000
     22 O4          1.6741   -2.4892    2.6314 O.2       1 <0>         0.0000
     23 H1          7.5545   -3.4840   -2.2621 H         1 <0>         0.0000
     24 H2          6.4596   -5.2491    4.2175 H         1 <0>         0.0000
     25 H3          5.3256   -5.3883    2.8641 H         1 <0>         0.0000
     26 H4          4.7804   -5.6761    4.5273 H         1 <0>         0.0000
     27 H5          6.1838   -3.2884    5.9121 H         1 <0>         0.0000
     28 H6          4.8754   -2.1200    5.6540 H         1 <0>         0.0000
     29 H7          4.4947   -3.7797    6.1290 H         1 <0>         0.0000
     30 H8          2.8872   -4.1345   -2.0879 H         1 <0>         0.0000
     31 H9          2.1738   -5.7124   -1.7140 H         1 <0>         0.0000
     32 H10         3.5794   -5.1449   -0.8119 H         1 <0>         0.0000
     33 H11         0.7565   -4.7621    1.6349 H         1 <0>         0.0000
     34 H12         2.3282   -5.5113    1.3711 H         1 <0>         0.0000
     35 H13         0.9158   -6.0685    0.4541 H         1 <0>         0.0000
     36 H14        -0.3050   -3.3025   -0.2384 H         1 <0>         0.0000
     37 H15        -0.1179   -4.6740   -1.3329 H         1 <0>         0.0000
     38 H16         0.5457   -3.0900   -1.7676 H         1 <0>         0.0000
     39 H17        -0.9522   -0.7139    1.8767 H         1 <0>         0.0000
     40 H18        -0.0213    0.7135    1.3710 H         1 <0>         0.0000
     41 H19         0.4945   -0.2269    2.7876 H         1 <0>         0.0000
     42 H20         7.0493   -2.7891    3.5757 H         1 <0>         0.0000
     43 H21         5.7503   -1.6191    3.3985 H         1 <0>         0.0000
     44 H22         7.1657   -1.3514    0.7623 H         1 <0>         0.0000
     45 H23         8.1413   -2.5219    1.6590 H         1 <0>         0.0000
     46 H24         5.9704   -4.0198    1.5260 H         1 <0>         0.0000
     47 H25         2.6549   -2.1876   -0.4426 H         1 <0>         0.0000
     48 H26         4.0519   -3.4254    3.7195 H         1 <0>         0.0000
     49 H27         0.8872   -0.9429   -0.0594 H         1 <0>         0.0000
     50 H28         3.8157   -4.1378    1.3829 H         1 <0>         0.0000
@<TRIPOS>BOND
     1    1   18 am
     2    1   20 2
     3    2   12 1
     4    2   17 am
     5    2   21 2
     6    3   13 1
     7    3   16 am
     8    3   22 2
     9    4   14 1
    10    5   14 1
    11    6   15 1
    12    7   15 1
    13    8   15 1
    14    9   16 1
    15   10   12 1
    16   10   14 1
    17   11   12 1
    18   11   18 1
    19   13   15 1
    20   13   17 1
    21   18   19 1
    22    1   23 1
    23    4   24 1
    24    4   25 1
    25    4   26 1
    26    5   27 1
    27    5   28 1
    28    5   29 1
    29    6   30 1
    30    6   31 1
    31    6   32 1
    32    7   33 1
    33    7   34 1
    34    7   35 1
    35    8   36 1
    36    8   37 1
    37    8   38 1
    38    9   39 1
    39    9   40 1
    40    9   41 1
    41   10   42 1
    42   10   43 1
    43   11   44 1
    44   11   45 1
    45   12   46 1
    46   13   47 1
    47   14   48 1
    48   16   49 1
    49   17   50 1
@<TRIPOS>MOLECULE
LIGAND
   50    49     0     0     0
SMALL
NO_CHARGES

@<TRIPOS>ATOM
      1 C1          8.2041   -5.3564    0.7906 C.2       1 <0>         0.0000
      2 C2          4.7609   -2.3304    1.0158 C.2       1 <0>         0.0000
      3 C3          1.6238   -2.1763    1.4428 C.2       1 <0>         0.0000
      4 C4          4.8998   -3.3220    4.5808 C.3       1 <0>         0.0000
      5 C5          5.9126   -1.1117    5.1647 C.3       1 <0>         0.0000
      6 C6          2.6382   -4.8237   -1.2732 C.3       1 <0>         0.0000
      7 C7          1.4139   -5.1834    0.8654 C.3       1 <0>         0.0000
      8 C8          0.3871   -3.7862   -0.9377 C.3       1 <0>         0.0000
      9 C9          0.0532   -0.2939    1.7895 C.3       1 <0>         0.0000
     10 C10         6.4405   -2.1272    2.9267 C.3       1 <0>         0.0000
     11 C11         7.1342   -3.0688    0.6654 C.3       1 <0>         0.0000
     12 C12         5.9953   -2.9363    1.6910 C.3       1 <0>         0.0000
     13 C13         2.4245   -2.8999    0.3599 C.3       1 <0>         0.0000
     14 C14         5.3645   -1.9750    4.0244 C.3       1 <0>         0.0000
     15 C15         1.7114   -4.1488   -0.2382 C.3       1 <0>         0.0000
     16 N1          0.8675   -1.1285    0.9389 N.am      1 <0>         0.0000
     17 N2          3.6959   -3.2182    0.9688 N.am      1 <0>         0.0000
     18 N3          8.1489   -4.0093    1.0586 N.am      1 <0>         0.0000
     19 O1          9.1831   -3.4656    1.7950 O.3       1 <0>         0.0000
     20 O2          7.3782   -6.0047    0.1549 O.2       1 <0>         0.0000
     21 O3          4.7482   -1.1914    0.5542 O.2       1 <0>         0.0000
     22 O4          1.6741   -2.4892    2.6314 O.2       1 <0>         0.0000
     23 H1          9.0967   -5.8531    1.2102 H         1 <0>         0.0000
     24 H2          5.7423   -3.8772    5.0075 H         1 <0>         0.0000
     25 H3          4.4501   -3.9417    3.7978 H         1 <0>         0.0000
     26 H4          4.1642   -3.1925    5.3800 H         1 <0>         0.0000
     27 H5          6.7922   -1.5734    5.6261 H         1 <0>         0.0000
     28 H6          6.2016   -0.1209    4.7985 H         1 <0>         0.0000
     29 H7          5.1564   -0.9697    5.9440 H         1 <0>         0.0000
     30 H8          2.8872   -4.1345   -2.0879 H         1 <0>         0.0000
     31 H9          2.1738   -5.7124   -1.7140 H         1 <0>         0.0000
     32 H10         3.5794   -5.1449   -0.8119 H         1 <0>         0.0000
     33 H11         0.7565   -4.7621    1.6349 H         1 <0>         0.0000
     34 H12         2.3282   -5.5113    1.3711 H         1 <0>         0.0000
     35 H13         0.9158   -6.0685    0.4541 H         1 <0>         0.0000
     36 H14        -0.3050   -3.3025   -0.2384 H         1 <0>         0.0000
     37 H15        -0.1179   -4.6740   -1.3329 H         1 <0>         0.0000
     38 H16         0.5457   -3.0900   -1.7676 H         1 <0>         0.0000
     39 H17        -0.9522   -0.7139    1.8767 H         1 <0>         0.0000
     40 H18        -0.0213    0.7135    1.3710 H         1 <0>         0.0000
     41 H19         0.4945   -0.2269    2.7876 H         1 <0>         0.0000
     42 H20         7.3251   -2.6069    3.3666 H         1 <0>         0.0000
     43 H21         6.7588   -1.1249    2.6110 H         1 <0>         0.0000
     44 H22         6.7419   -3.4007   -0.3017 H         1 <0>         0.0000
     45 H23         7.6368   -2.1087    0.5083 H         1 <0>         0.0000
     46 H24         5.7385   -3.9535    2.0094 H         1 <0>         0.0000
     47 H25         2.6549   -2.1876   -0.4426 H         1 <0>         0.0000
     48 H26         4.4913   -1.4577    3.6101 H         1 <0>         0.0000
     49 H27         0.8872   -0.9429   -0.0594 H         1 <0>         0.0000
     50 H28         3.8157   -4.1378    1.3829 H         1 <0>         0.0000
@<TRIPOS>BOND
     1    1   18 am
     2    1   20 2
     3    2   12 1
     4    2   17 am
     5    2   21 2
     6    3   13 1
     7    3   16 am
     8    3   22 2
     9    4   14 1
    10    5   14 1
    11    6   15 1
    12    7   15 1
    13    8   15 1
    14    9   16 1
    15   10   12 1
    16   10   14 1
    17   11   12 1
    18   11   18 1
    19   13   15 1
    20   13   17 1
    21   18   19 1
    22    1   23 1
    23    4   24 1
    24    4   25 1
    25    4   26 1
    26    5   27 1
    27    5   28 1
    28    5   29 1
    29    6   30 1
    30    6   31 1
    31    6   32 1
    32    7   33 1
    33    7   34 1
    34    7   35 1
    35    8   36 1
    36    8   37 1
    37    8   38 1
    38    9   39 1
    39    9   40 1
    40    9   41 1
    41   10   42 1
    42   10   43 1
    43   11   44 1
    44   11   45 1
    45   12   46 1
    46   13   47 1
    47   14   48 1
    48   16   49 1
    49   17   50 1
@<TRIPOS>MOLECULE
LIGAND
   50    49     0     0     0
SMALL
NO_CHARGES

@<TRIPOS>ATOM
      1 C1          7.5793   -4.4967    4.2605 C.2       1 <0>         0.0000
      2 C2          4.7609   -2.3304    1.0158 C.2       1 <0>         0.0000
      3 C3          1.4114   -2.9063    1.5049 C.2       1 <0>         0.0000
      4 C4          7.9668   -2.9805   -0.7195 C.3       1 <0>         0.0000
      5 C5          7.2752   -5.3485   -1.1277 C.3       1 <0>         0.0000
      6 C6          3.1857   -3.8003   -1.8813 C.3       1 <0>         0.0000
      7 C7          1.9543   -5.3076   -0.3278 C.3       1 <0>         0.0000
      8 C8          0.7370   -3.4626   -1.4991 C.3       1 <0>         0.0000
      9 C9         -0.5781   -1.7107    2.3670 C.3       1 <0>         0.0000
     10 C10         6.4903   -4.2069    0.9698 C.3       1 <0>         0.0000
     11 C11         5.6912   -3.2135    3.1734 C.3       1 <0>         0.0000
     12 C12         5.9953   -2.9363    1.6910 C.3       1 <0>         0.0000
     13 C13         2.4245   -2.8999    0.3599 C.3       1 <0>         0.0000
     14 C14         6.8518   -4.0083   -0.5189 C.3       1 <0>         0.0000
     15 C15         2.0646   -3.8508   -0.8201 C.3       1 <0>         0.0000
     16 N1          0.4604   -1.9038    1.3835 N.am      1 <0>         0.0000
     17 N2          3.6959   -3.2182    0.9688 N.am      1 <0>         0.0000
     18 N3          6.8729   -3.3510    3.9817 N.am      1 <0>         0.0000
     19 O1          7.3330   -2.1714    4.5335 O.3       1 <0>         0.0000
     20 O2          7.3180   -5.6268    3.8588 O.2       1 <0>         0.0000
     21 O3          4.7482   -1.1914    0.5542 O.2       1 <0>         0.0000
     22 O4          1.4623   -3.7076    2.4368 O.2       1 <0>         0.0000
     23 H1          8.4551   -4.3273    4.9116 H         1 <0>         0.0000
     24 H2          8.8753   -3.2848   -0.1883 H         1 <0>         0.0000
     25 H3          7.6713   -1.9951   -0.3441 H         1 <0>         0.0000
     26 H4          8.2323   -2.8793   -1.7758 H         1 <0>         0.0000
     27 H5          8.1599   -5.7527   -0.6240 H         1 <0>         0.0000
     28 H6          6.4698   -6.0859   -1.0440 H         1 <0>         0.0000
     29 H7          7.5125   -5.2358   -2.1909 H         1 <0>         0.0000
     30 H8          3.3133   -2.7845   -2.2720 H         1 <0>         0.0000
     31 H9          2.9723   -4.4622   -2.7277 H         1 <0>         0.0000
     32 H10         4.1465   -4.1154   -1.4578 H         1 <0>         0.0000
     33 H11         1.1705   -5.4095    0.4319 H         1 <0>         0.0000
     34 H12         2.8879   -5.6535    0.1281 H         1 <0>         0.0000
     35 H13         1.7055   -5.9859   -1.1517 H         1 <0>         0.0000
     36 H14        -0.0909   -3.4848   -0.7807 H         1 <0>         0.0000
     37 H15         0.4812   -4.1517   -2.3109 H         1 <0>         0.0000
     38 H16         0.7762   -2.4505   -1.9146 H         1 <0>         0.0000
     39 H17        -1.4589   -2.3023    2.1044 H         1 <0>         0.0000
     40 H18        -0.8634   -0.6562    2.4133 H         1 <0>         0.0000
     41 H19        -0.2264   -2.0222    3.3542 H         1 <0>         0.0000
     42 H20         7.3727   -4.5944    1.4964 H         1 <0>         0.0000
     43 H21         5.7222   -4.9884    1.0394 H         1 <0>         0.0000
     44 H22         5.0986   -2.3982    3.6018 H         1 <0>         0.0000
     45 H23         5.1177   -4.1388    3.2917 H         1 <0>         0.0000
     46 H24         6.7931   -2.1847    1.6686 H         1 <0>         0.0000
     47 H25         2.5279   -1.8729   -0.0129 H         1 <0>         0.0000
     48 H26         5.9671   -3.6628   -1.0661 H         1 <0>         0.0000
     49 H27         0.4960   -1.2867    0.5777 H         1 <0>         0.0000
     50 H28         3.8157   -4.1378    1.3829 H         1 <0>         0.0000
@<TRIPOS>BOND
     1    1   18 am
     2    1   20 2
     3    2   12 1
     4    2   17 am
     5    2   21 2
     6    3   13 1
     7    3   16 am
     8    3   22 2
     9    4   14 1
    10    5   14 1
    11    6   15 1
    12    7   15 1
    13    8   15 1
    14    9   16 1
    15   10   12 1
    16   10   14 1
    17   11   12 1
    18   11   18 1
    19   13   15 1
    20   13   17 1
    21   18   19 1
    22    1   23 1
    23    4   24 1
    24    4   25 1
    25    4   26 1
    26    5   27 1
    27    5   28 1
    28    5   29 1
    29    6   30 1
    30    6   31 1
    31    6   32 1
    32    7   33 1
    33    7   34 1
    34    7   35 1
    35    8   36 1
    36    8   37 1
    37    8   38 1
    38    9   39 1
    39    9   40 1
    40    9   41 1
    41   10   42 1
    42   10   43 1
    43   11   44 1
    44   11   45 1
    45   12   46 1
    46   13   47 1
    47   14   48 1
    48   16   49 1
    49   17   50 1
@<TRIPOS>MOLECULE
LIGAND
   50    49     0     0     0
SMALL
NO_CHARGES

@<TRIPOS>ATOM
      1 C1          8.5105   -4.8536    1.8116 C.2       1 <0>         0.0000
      2 C2          4.7609   -2.3304    1.0158 C.2       1 <0>         0.0000
      3 C3          1.4114   -2.9063    1.5049 C.2       1 <0>         0.0000
      4 C4          4.8998   -3.3220    4.5808 C.3       1 <0>         0.0000
      5 C5          5.9126   -1.1117    5.1647 C.3       1 <0>         0.0000
      6 C6          3.1857   -3.8003   -1.8813 C.3       1 <0>         0.0000
      7 C7          1.9543   -5.3076   -0.3278 C.3       1 <0>         0.0000
      8 C8          0.7370   -3.4626   -1.4991 C.3       1 <0>         0.0000
      9 C9         -0.5781   -1.7107    2.3670 C.3       1 <0>         0.0000
     10 C10         6.4405   -2.1272    2.9267 C.3       1 <0>         0.0000
     11 C11         7.1342   -3.0688    0.6654 C.3       1 <0>         0.0000
     12 C12         5.9953   -2.9363    1.6910 C.3       1 <0>         0.0000
     13 C13         2.4245   -2.8999    0.3599 C.3       1 <0>         0.0000
     14 C14         5.3645   -1.9750    4.0244 C.3       1 <0>         0.0000
     15 C15         2.0646   -3.8508   -0.8201 C.3       1 <0>         0.0000
     16 N1          0.4604   -1.9038    1.3835 N.am      1 <0>         0.0000
     17 N2          3.6959   -3.2182    0.9688 N.am      1 <0>         0.0000
     18 N3          8.3392   -3.6246    1.2202 N.am      1 <0>         0.0000
     19 O1          9.4449   -2.8013    1.1353 O.3       1 <0>         0.0000
     20 O2          7.6451   -5.7091    1.9723 O.2       1 <0>         0.0000
     21 O3          4.7482   -1.1914    0.5542 O.2       1 <0>         0.0000
     22 O4          1.4623   -3.7076    2.4368 O.2       1 <0>         0.0000
     23 H1          9.5436   -5.0368    2.1563 H         1 <0>         0.0000
     24 H2          5.7423   -3.8772    5.0075 H         1 <0>         0.0000
     25 H3          4.4501   -3.9417    3.7978 H         1 <0>         0.0000
     26 H4          4.1642   -3.1925    5.3800 H         1 <0>         0.0000
     27 H5          6.7922   -1.5734    5.6261 H         1 <0>         0.0000
     28 H6          6.2016   -0.1209    4.7985 H         1 <0>         0.0000
     29 H7          5.1564   -0.9697    5.9440 H         1 <0>         0.0000
     30 H8          3.3133   -2.7845   -2.2720 H         1 <0>         0.0000
     31 H9          2.9723   -4.4622   -2.7277 H         1 <0>         0.0000
     32 H10         4.1465   -4.1154   -1.4578 H         1 <0>         0.0000
     33 H11         1.1705   -5.4095    0.4319 H         1 <0>         0.0000
     34 H12         2.8879   -5.6535    0.1281 H         1 <0>         0.0000
     35 H13         1.7055   -5.9859   -1.1517 H         1 <0>         0.0000
     36 H14        -0.0909   -3.4848   -0.7807 H         1 <0>         0.0000
     37 H15         0.4812   -4.1517   -2.3109 H         1 <0>         0.0000
     38 H16         0.7762   -2.4505   -1.9146 H         1 <0>         0.0000
     39 H17        -1.4589   -2.3023    2.1044 H         1 <0>         0.0000
     40 H18        -0.8634   -0.6562    2.4133 H         1 <0>         0.0000
     41 H19        -0.2264   -2.0222    3.3542 H         1 <0>         0.0000
     42 H20         7.3251   -2.6069    3.3666 H         1 <0>         0.0000
     43 H21         6.7588   -1.1249    2.6110 H         1 <0>         0.0000
     44 H22         6.8299   -3.7170   -0.1632 H         1 <0>         0.0000
     45 H23         7.4005   -2.0938    0.2440 H         1 <0>         0.0000
     46 H24         5.7385   -3.9535    2.0094 H         1 <0>         0.0000
     47 H25         2.5279   -1.8729   -0.0129 H         1 <0>         0.0000
     48 H26         4.4913   -1.4577    3.6101 H         1 <0>         0.0000
     49 H27         0.4960   -1.2867    0.5777 H         1 <0>         0.0000
     50 H28         3.8157   -4.1378    1.3829 H         1 <0>         0.0000
@<TRIPOS>BOND
     1    1   18 am
     2    1   20 2
     3    2   12 1
     4    2   17 am
     5    2   21 2
     6    3   13 1
     7    3   16 am
     8    3   22 2
     9    4   14 1
    10    5   14 1
    11    6   15 1
    12    7   15 1
    13    8   15 1
    14    9   16 1
    15   10   12 1
    16   10   14 1
    17   11   12 1
    18   11   18 1
    19   13   15 1
    20   13   17 1
    21   18   19 1
    22    1   23 1
    23    4   24 1
    24    4   25 1
    25    4   26 1
    26    5   27 1
    27    5   28 1
    28    5   29 1
    29    6   30 1
    30    6   31 1
    31    6   32 1
    32    7   33 1
    33    7   34 1
    34    7   35 1
    35    8   36 1
    36    8   37 1
    37    8   38 1
    38    9   39 1
    39    9   40 1
    40    9   41 1
    41   10   42 1
    42   10   43 1
    43   11   44 1
    44   11   45 1
    45   12   46 1
    46   13   47 1
    47   14   48 1
    48   16   49 1
    49   17   50 1
@<TRIPOS>MOLECULE
LIGAND
   50    49     0     0     0
SMALL
NO_CHARGES

@<TRIPOS>ATOM
      1 C1          7.3535   -4.0001   -0.9624 C.2       1 <0>         0.0000
      2 C2          4.7609   -2.3304    1.0158 C.2       1 <0>         0.0000
      3 C3          1.4114   -2.9063    1.5049 C.2       1 <0>         0.0000
      4 C4          5.4286   -5.0551    3.9022 C.3       1 <0>         0.0000
      5 C5          5.1681   -3.1669    5.5205 C.3       1 <0>         0.0000
      6 C6          3.1857   -3.8003   -1.8813 C.3       1 <0>         0.0000
      7 C7          1.9543   -5.3076   -0.3278 C.3       1 <0>         0.0000
      8 C8          0.7370   -3.4626   -1.4991 C.3       1 <0>         0.0000
      9 C9         -0.5781   -1.7107    2.3670 C.3       1 <0>         0.0000
     10 C10         6.0212   -2.6662    3.2096 C.3       1 <0>         0.0000
     11 C11         7.2695   -2.4142    1.0053 C.3       1 <0>         0.0000
     12 C12         5.9953   -2.9363    1.6910 C.3       1 <0>         0.0000
     13 C13         2.4245   -2.8999    0.3599 C.3       1 <0>         0.0000
     14 C14         5.0884   -3.5706    4.0452 C.3       1 <0>         0.0000
     15 C15         2.0646   -3.8508   -0.8201 C.3       1 <0>         0.0000
     16 N1          0.4604   -1.9038    1.3835 N.am      1 <0>         0.0000
     17 N2          3.6959   -3.2182    0.9688 N.am      1 <0>         0.0000
     18 N3          7.3436   -2.7497   -0.3914 N.am      1 <0>         0.0000
     19 O1          7.4124   -1.6632   -1.2413 O.3       1 <0>         0.0000
     20 O2          7.2996   -5.0713   -0.3656 O.2       1 <0>         0.0000
     21 O3          4.7482   -1.1914    0.5542 O.2       1 <0>         0.0000
     22 O4          1.4623   -3.7076    2.4368 O.2       1 <0>         0.0000
     23 H1          7.4170   -3.9808   -2.0648 H         1 <0>         0.0000
     24 H2          6.4596   -5.2491    4.2175 H         1 <0>         0.0000
     25 H3          5.3256   -5.3883    2.8641 H         1 <0>         0.0000
     26 H4          4.7804   -5.6761    4.5273 H         1 <0>         0.0000
     27 H5          6.1838   -3.2884    5.9121 H         1 <0>         0.0000
     28 H6          4.8754   -2.1200    5.6540 H         1 <0>         0.0000
     29 H7          4.4947   -3.7797    6.1290 H         1 <0>         0.0000
     30 H8          3.3133   -2.7845   -2.2720 H         1 <0>         0.0000
     31 H9          2.9723   -4.4622   -2.7277 H         1 <0>         0.0000
     32 H10         4.1465   -4.1154   -1.4578 H         1 <0>         0.0000
     33 H11         1.1705   -5.4095    0.4319 H         1 <0>         0.0000
     34 H12         2.8879   -5.6535    0.1281 H         1 <0>         0.0000
     35 H13         1.7055   -5.9859   -1.1517 H         1 <0>         0.0000
     36 H14        -0.0909   -3.4848   -0.7807 H         1 <0>         0.0000
     37 H15         0.4812   -4.1517   -2.3109 H         1 <0>         0.0000
     38 H16         0.7762   -2.4505   -1.9146 H         1 <0>         0.0000
     39 H17        -1.4589   -2.3023    2.1044 H         1 <0>         0.0000
     40 H18        -0.8634   -0.6562    2.4133 H         1 <0>         0.0000
     41 H19        -0.2264   -2.0222    3.3542 H         1 <0>         0.0000
     42 H20         7.0493   -2.7891    3.5757 H         1 <0>         0.0000
     43 H21         5.7503   -1.6191    3.3985 H         1 <0>         0.0000
     44 H22         7.3249   -1.3230    1.0798 H         1 <0>         0.0000
     45 H23         8.1679   -2.8255    1.4773 H         1 <0>         0.0000
     46 H24         5.9704   -4.0198    1.5260 H         1 <0>         0.0000
     47 H25         2.5279   -1.8729   -0.0129 H         1 <0>         0.0000
     48 H26         4.0519   -3.4254    3.7195 H         1 <0>         0.0000
     49 H27         0.4960   -1.2867    0.5777 H         1 <0>         0.0000
     50 H28         3.8157   -4.1378    1.3829 H         1 <0>         0.0000
@<TRIPOS>BOND
     1    1   18 am
     2    1   20 2
     3    2   12 1
     4    2   17 am
     5    2   21 2
     6    3   13 1
     7    3   16 am
     8    3   22 2
     9    4   14 1
    10    5   14 1
    11    6   15 1
    12    7   15 1
    13    8   15 1
    14    9   16 1
    15   10   12 1
    16   10   14 1
    17   11   12 1
    18   11   18 1
    19   13   15 1
    20   13   17 1
    21   18   19 1
    22    1   23 1
    23    4   24 1
    24    4   25 1
    25    4   26 1
    26    5   27 1
    27    5   28 1
    28    5   29 1
    29    6   30 1
    30    6   31 1
    31    6   32 1
    32    7   33 1
    33    7   34 1
    34    7   35 1
    35    8   36 1
    36    8   37 1
    37    8   38 1
    38    9   39 1
    39    9   40 1
    40    9   41 1
    41   10   42 1
    42   10   43 1
    43   11   44 1
    44   11   45 1
    45   12   46 1
    46   13   47 1
    47   14   48 1
    48   16   49 1
    49   17   50 1
@<TRIPOS>MOLECULE
LIGAND
   50    49     0     0     0
SMALL
NO_CHARGES

@<TRIPOS>ATOM
      1 C1          8.3562   -4.2249   -0.3854 C.2       1 <0>         0.0000
      2 C2          4.7609   -2.3304    1.0158 C.2       1 <0>         0.0000
      3 C3          1.6238   -2.1763    1.4428 C.2       1 <0>         0.0000
      4 C4          5.4286   -5.0551    3.9022 C.3       1 <0>         0.0000
      5 C5          5.1681   -3.1669    5.5205 C.3       1 <0>         0.0000
      6 C6          2.6382   -4.8237   -1.2732 C.3       1 <0>         0.0000
      7 C7          1.4139   -5.1834    0.8654 C.3       1 <0>         0.0000
      8 C8          0.3871   -3.7862   -0.9377 C.3       1 <0>         0.0000
      9 C9          0.0532   -0.2939    1.7895 C.3       1 <0>         0.0000
     10 C10         6.0212   -2.6662    3.2096 C.3       1 <0>         0.0000
     11 C11         7.2695   -2.4142    1.0053 C.3       1 <0>         0.0000
     12 C12         5.9953   -2.9363    1.6910 C.3       1 <0>         0.0000
     13 C13         2.4245   -2.8999    0.3599 C.3       1 <0>         0.0000
     14 C14         5.0884   -3.5706    4.0452 C.3       1 <0>         0.0000
     15 C15         1.7114   -4.1488   -0.2382 C.3       1 <0>         0.0000
     16 N1          0.8675   -1.1285    0.9389 N.am      1 <0>         0.0000
     17 N2          3.6959   -3.2182    0.9688 N.am      1 <0>         0.0000
     18 N3          7.5808   -3.1022   -0.2189 N.am      1 <0>         0.0000
     19 O1          7.0189   -2.5452   -1.3509 O.3       1 <0>         0.0000
     20 O2          8.9304   -4.8491    0.5019 O.2       1 <0>         0.0000
     21 O3          4.7482   -1.1914    0.5542 O.2       1 <0>         0.0000
     22 O4          1.6741   -2.4892    2.6314 O.2       1 <0>         0.0000
     23 H1          8.4365   -4.5533   -1.4368 H         1 <0>         0.0000
     24 H2          6.4596   -5.2491    4.2175 H         1 <0>         0.0000
     25 H3          5.3256   -5.3883    2.8641 H         1 <0>         0.0000
     26 H4          4.7804   -5.6761    4.5273 H         1 <0>         0.0000
     27 H5          6.1838   -3.2884    5.9121 H         1 <0>         0.0000
     28 H6          4.8754   -2.1200    5.6540 H         1 <0>         0.0000
     29 H7          4.4947   -3.7797    6.1290 H         1 <0>         0.0000
     30 H8          2.8872   -4.1345   -2.0879 H         1 <0>         0.0000
     31 H9          2.1738   -5.7124   -1.7140 H         1 <0>         0.0000
     32 H10         3.5794   -5.1449   -0.8119 H         1 <0>         0.0000
     33 H11         0.7565   -4.7621    1.6349 H         1 <0>         0.0000
     34 H12         2.3282   -5.5113    1.3711 H         1 <0>         0.0000
     35 H13         0.9158   -6.0685    0.4541 H         1 <0>         0.0000
     36 H14        -0.3050   -3.3025   -0.2384 H         1 <0>         0.0000
     37 H15        -0.1179   -4.6740   -1.3329 H         1 <0>         0.0000
     38 H16         0.5457   -3.0900   -1.7676 H         1 <0>         0.0000
     39 H17        -0.9522   -0.7139    1.8767 H         1 <0>         0.0000
     40 H18        -0.0213    0.7135    1.3710 H         1 <0>         0.0000
     41 H19         0.4945   -0.2269    2.7876 H         1 <0>         0.0000
     42 H20         7.0493   -2.7891    3.5757 H         1 <0>         0.0000
     43 H21         5.7503   -1.6191    3.3985 H         1 <0>         0.0000
     44 H22         7.1657   -1.3514    0.7623 H         1 <0>         0.0000
     45 H23         8.1413   -2.5219    1.6590 H         1 <0>         0.0000
     46 H24         5.9704   -4.0198    1.5260 H         1 <0>         0.0000
     47 H25         2.6549   -2.1876   -0.4426 H         1 <0>         0.0000
     48 H26         4.0519   -3.4254    3.7195 H         1 <0>         0.0000
     49 H27         0.8872   -0.9429   -0.0594 H         1 <0>         0.0000
     50 H28         3.8157   -4.1378    1.3829 H         1 <0>         0.0000
@<TRIPOS>BOND
     1    1   18 am
     2    1   20 2
     3    2   12 1
     4    2   17 am
     5    2   21 2
     6    3   13 1
     7    3   16 am
     8    3   22 2
     9    4   14 1
    10    5   14 1
    11    6   15 1
    12    7   15 1
    13    8   15 1
    14    9   16 1
    15   10   12 1
    16   10   14 1
    17   11   12 1
    18   11   18 1
    19   13   15 1
    20   13   17 1
    21   18   19 1
    22    1   23 1
    23    4   24 1
    24    4   25 1
    25    4   26 1
    26    5   27 1
    27    5   28 1
    28    5   29 1
    29    6   30 1
    30    6   31 1
    31    6   32 1
    32    7   33 1
    33    7   34 1
    34    7   35 1
    35    8   36 1
    36    8   37 1
    37    8   38 1
    38    9   39 1
    39    9   40 1
    40    9   41 1
    41   10   42 1
    42   10   43 1
    43   11   44 1
    44   11   45 1
    45   12   46 1
    46   13   47 1
    47   14   48 1
    48   16   49 1
    49   17   50 1
@<TRIPOS>MOLECULE
LIGAND
   50    49     0     0     0
SMALL
NO_CHARGES

@<TRIPOS>ATOM
      1 C1          7.4494   -6.0057    1.5877 C.2       1 <0>         0.0000
      2 C2          4.7609   -2.3304    1.0158 C.2       1 <0>         0.0000
      3 C3          1.3743   -3.6105    1.2141 C.2       1 <0>         0.0000
      4 C4          5.5916   -1.8934    4.5978 C.3       1 <0>         0.0000
      5 C5          7.0929    0.0222    4.0244 C.3       1 <0>         0.0000
      6 C6          3.5112   -2.5312   -1.8976 C.3       1 <0>         0.0000
      7 C7          2.5798   -4.7765   -1.3563 C.3       1 <0>         0.0000
      8 C8          1.0336   -2.8618   -1.8044 C.3       1 <0>         0.0000
      9 C9         -0.8899   -3.3247    2.1744 C.3       1 <0>         0.0000
     10 C10         6.8665   -1.8668    2.3816 C.3       1 <0>         0.0000
     11 C11         6.8055   -3.7427    0.6616 C.3       1 <0>         0.0000
     12 C12         5.9953   -2.9363    1.6910 C.3       1 <0>         0.0000
     13 C13         2.4245   -2.8999    0.3599 C.3       1 <0>         0.0000
     14 C14         6.1374   -1.0321    3.4575 C.3       1 <0>         0.0000
     15 C15         2.3718   -3.2623   -1.1540 C.3       1 <0>         0.0000
     16 N1          0.2223   -2.8565    1.3827 N.am      1 <0>         0.0000
     17 N2          3.6959   -3.2182    0.9688 N.am      1 <0>         0.0000
     18 N3          7.7018   -4.6947    1.2608 N.am      1 <0>         0.0000
     19 O1          8.9648   -4.2050    1.5307 O.3       1 <0>         0.0000
     20 O2          6.3911   -6.6048    1.4210 O.2       1 <0>         0.0000
     21 O3          4.7482   -1.1914    0.5542 O.2       1 <0>         0.0000
     22 O4          1.5569   -4.7218    1.7089 O.2       1 <0>         0.0000
     23 H1          8.3147   -6.5219    2.0397 H         1 <0>         0.0000
     24 H2          6.4006   -2.4456    5.0885 H         1 <0>         0.0000
     25 H3          4.8609   -2.6219    4.2310 H         1 <0>         0.0000
     26 H4          5.1097   -1.2817    5.3659 H         1 <0>         0.0000
     27 H5          7.9623   -0.4436    4.5008 H         1 <0>         0.0000
     28 H6          7.4545    0.6861    3.2321 H         1 <0>         0.0000
     29 H7          6.5886    0.6429    4.7727 H         1 <0>         0.0000
     30 H8          3.4182   -1.4447   -1.7906 H         1 <0>         0.0000
     31 H9          3.5120   -2.7653   -2.9677 H         1 <0>         0.0000
     32 H10         4.4918   -2.8203   -1.5020 H         1 <0>         0.0000
     33 H11         1.7979   -5.3538   -0.8491 H         1 <0>         0.0000
     34 H12         3.5395   -5.1121   -0.9494 H         1 <0>         0.0000
     35 H13         2.5489   -5.0416   -2.4191 H         1 <0>         0.0000
     36 H14         0.1926   -3.3589   -1.3070 H         1 <0>         0.0000
     37 H15         0.9978   -3.1431   -2.8622 H         1 <0>         0.0000
     38 H16         0.8573   -1.7835   -1.7352 H         1 <0>         0.0000
     39 H17        -1.5882   -3.8849    1.5471 H         1 <0>         0.0000
     40 H18        -1.4189   -2.4783    2.6208 H         1 <0>         0.0000
     41 H19        -0.5348   -3.9781    2.9759 H         1 <0>         0.0000
     42 H20         7.7322   -2.3581    2.8457 H         1 <0>         0.0000
     43 H21         7.2705   -1.1813    1.6250 H         1 <0>         0.0000
     44 H22         6.1354   -4.3010   -0.0008 H         1 <0>         0.0000
     45 H23         7.4165   -3.0830    0.0367 H         1 <0>         0.0000
     46 H24         5.6479   -3.6501    2.4472 H         1 <0>         0.0000
     47 H25         2.3043   -1.8161    0.4837 H         1 <0>         0.0000
     48 H26         5.2955   -0.5008    2.9986 H         1 <0>         0.0000
     49 H27         0.1595   -1.9470    0.9352 H         1 <0>         0.0000
     50 H28         3.8157   -4.1378    1.3829 H         1 <0>         0.0000
@<TRIPOS>BOND
     1    1   18 am
     2    1   20 2
     3    2   12 1
     4    2   17 am
     5    2   21 2
     6    3   13 1
     7    3   16 am
     8    3   22 2
     9    4   14 1
    10    5   14 1
    11    6   15 1
    12    7   15 1
    13    8   15 1
    14    9   16 1
    15   10   12 1
    16   10   14 1
    17   11   12 1
    18   11   18 1
    19   13   15 1
    20   13   17 1
    21   18   19 1
    22    1   23 1
    23    4   24 1
    24    4   25 1
    25    4   26 1
    26    5   27 1
    27    5   28 1
    28    5   29 1
    29    6   30 1
    30    6   31 1
    31    6   32 1
    32    7   33 1
    33    7   34 1
    34    7   35 1
    35    8   36 1
    36    8   37 1
    37    8   38 1
    38    9   39 1
    39    9   40 1
    40    9   41 1
    41   10   42 1
    42   10   43 1
    43   11   44 1
    44   11   45 1
    45   12   46 1
    46   13   47 1
    47   14   48 1
    48   16   49 1
    49   17   50 1
@<TRIPOS>MOLECULE
LIGAND
   50    49     0     0     0
SMALL
NO_CHARGES

@<TRIPOS>ATOM
      1 C1          6.8958   -1.5680    4.6682 C.2       1 <0>         0.0000
      2 C2          4.7609   -2.3304    1.0158 C.2       1 <0>         0.0000
      3 C3          1.4114   -2.9063    1.5049 C.2       1 <0>         0.0000
      4 C4          7.9668   -2.9805   -0.7195 C.3       1 <0>         0.0000
      5 C5          7.2752   -5.3485   -1.1277 C.3       1 <0>         0.0000
      6 C6          3.1857   -3.8003   -1.8813 C.3       1 <0>         0.0000
      7 C7          1.9543   -5.3076   -0.3278 C.3       1 <0>         0.0000
      8 C8          0.7370   -3.4626   -1.4991 C.3       1 <0>         0.0000
      9 C9         -0.5781   -1.7107    2.3670 C.3       1 <0>         0.0000
     10 C10         6.4903   -4.2069    0.9698 C.3       1 <0>         0.0000
     11 C11         5.6912   -3.2135    3.1734 C.3       1 <0>         0.0000
     12 C12         5.9953   -2.9363    1.6910 C.3       1 <0>         0.0000
     13 C13         2.4245   -2.8999    0.3599 C.3       1 <0>         0.0000
     14 C14         6.8518   -4.0083   -0.5189 C.3       1 <0>         0.0000
     15 C15         2.0646   -3.8508   -0.8201 C.3       1 <0>         0.0000
     16 N1          0.4604   -1.9038    1.3835 N.am      1 <0>         0.0000
     17 N2          3.6959   -3.2182    0.9688 N.am      1 <0>         0.0000
     18 N3          5.7903   -2.0436    4.0042 N.am      1 <0>         0.0000
     19 O1          4.6156   -1.3288    4.1337 O.3       1 <0>         0.0000
     20 O2          8.0156   -2.0707    4.6671 O.2       1 <0>         0.0000
     21 O3          4.7482   -1.1914    0.5542 O.2       1 <0>         0.0000
     22 O4          1.4623   -3.7076    2.4368 O.2       1 <0>         0.0000
     23 H1          6.7023   -0.6439    5.2411 H         1 <0>         0.0000
     24 H2          8.8753   -3.2848   -0.1883 H         1 <0>         0.0000
     25 H3          7.6713   -1.9951   -0.3441 H         1 <0>         0.0000
     26 H4          8.2323   -2.8793   -1.7758 H         1 <0>         0.0000
     27 H5          8.1599   -5.7527   -0.6240 H         1 <0>         0.0000
     28 H6          6.4698   -6.0859   -1.0440 H         1 <0>         0.0000
     29 H7          7.5125   -5.2358   -2.1909 H         1 <0>         0.0000
     30 H8          3.3133   -2.7845   -2.2720 H         1 <0>         0.0000
     31 H9          2.9723   -4.4622   -2.7277 H         1 <0>         0.0000
     32 H10         4.1465   -4.1154   -1.4578 H         1 <0>         0.0000
     33 H11         1.1705   -5.4095    0.4319 H         1 <0>         0.0000
     34 H12         2.8879   -5.6535    0.1281 H         1 <0>         0.0000
     35 H13         1.7055   -5.9859   -1.1517 H         1 <0>         0.0000
     36 H14        -0.0909   -3.4848   -0.7807 H         1 <0>         0.0000
     37 H15         0.4812   -4.1517   -2.3109 H         1 <0>         0.0000
     38 H16         0.7762   -2.4505   -1.9146 H         1 <0>         0.0000
     39 H17        -1.4589   -2.3023    2.1044 H         1 <0>         0.0000
     40 H18        -0.8634   -0.6562    2.4133 H         1 <0>         0.0000
     41 H19        -0.2264   -2.0222    3.3542 H         1 <0>         0.0000
     42 H20         7.3727   -4.5944    1.4964 H         1 <0>         0.0000
     43 H21         5.7222   -4.9884    1.0394 H         1 <0>         0.0000
     44 H22         4.6761   -3.6079    3.2888 H         1 <0>         0.0000
     45 H23         6.3842   -3.9541    3.5861 H         1 <0>         0.0000
     46 H24         6.7931   -2.1847    1.6686 H         1 <0>         0.0000
     47 H25         2.5279   -1.8729   -0.0129 H         1 <0>         0.0000
     48 H26         5.9671   -3.6628   -1.0661 H         1 <0>         0.0000
     49 H27         0.4960   -1.2867    0.5777 H         1 <0>         0.0000
     50 H28         3.8157   -4.1378    1.3829 H         1 <0>         0.0000
@<TRIPOS>BOND
     1    1   18 am
     2    1   20 2
     3    2   12 1
     4    2   17 am
     5    2   21 2
     6    3   13 1
     7    3   16 am
     8    3   22 2
     9    4   14 1
    10    5   14 1
    11    6   15 1
    12    7   15 1
    13    8   15 1
    14    9   16 1
    15   10   12 1
    16   10   14 1
    17   11   12 1
    18   11   18 1
    19   13   15 1
    20   13   17 1
    21   18   19 1
    22    1   23 1
    23    4   24 1
    24    4   25 1
    25    4   26 1
    26    5   27 1
    27    5   28 1
    28    5   29 1
    29    6   30 1
    30    6   31 1
    31    6   32 1
    32    7   33 1
    33    7   34 1
    34    7   35 1
    35    8   36 1
    36    8   37 1
    37    8   38 1
    38    9   39 1
    39    9   40 1
    40    9   41 1
    41   10   42 1
    42   10   43 1
    43   11   44 1
    44   11   45 1
    45   12   46 1
    46   13   47 1
    47   14   48 1
    48   16   49 1
    49   17   50 1
@<TRIPOS>MOLECULE
LIGAND
   50    49     0     0     0
SMALL
NO_CHARGES

@<TRIPOS>ATOM
      1 C1          9.3378   -3.1321    2.2703 C.2       1 <0>         0.0000
      2 C2          4.7609   -2.3304    1.0158 C.2       1 <0>         0.0000
      3 C3          1.6238   -2.1763    1.4428 C.2       1 <0>         0.0000
      4 C4          5.4286   -5.0551    3.9022 C.3       1 <0>         0.0000
      5 C5          5.1681   -3.1669    5.5205 C.3       1 <0>         0.0000
      6 C6          2.6382   -4.8237   -1.2732 C.3       1 <0>         0.0000
      7 C7          1.4139   -5.1834    0.8654 C.3       1 <0>         0.0000
      8 C8          0.3871   -3.7862   -0.9377 C.3       1 <0>         0.0000
      9 C9          0.0532   -0.2939    1.7895 C.3       1 <0>         0.0000
     10 C10         6.0212   -2.6662    3.2096 C.3       1 <0>         0.0000
     11 C11         7.2695   -2.4142    1.0053 C.3       1 <0>         0.0000
     12 C12         5.9953   -2.9363    1.6910 C.3       1 <0>         0.0000
     13 C13         2.4245   -2.8999    0.3599 C.3       1 <0>         0.0000
     14 C14         5.0884   -3.5706    4.0452 C.3       1 <0>         0.0000
     15 C15         1.7114   -4.1488   -0.2382 C.3       1 <0>         0.0000
     16 N1          0.8675   -1.1285    0.9389 N.am      1 <0>         0.0000
     17 N2          3.6959   -3.2182    0.9688 N.am      1 <0>         0.0000
     18 N3          8.4249   -3.2358    1.2479 N.am      1 <0>         0.0000
     19 O1          8.6173   -4.2452    0.3251 O.3       1 <0>         0.0000
     20 O2          9.3248   -2.3015    3.1740 O.2       1 <0>         0.0000
     21 O3          4.7482   -1.1914    0.5542 O.2       1 <0>         0.0000
     22 O4          1.6741   -2.4892    2.6314 O.2       1 <0>         0.0000
     23 H1         10.1373   -3.8927    2.2264 H         1 <0>         0.0000
     24 H2          6.4596   -5.2491    4.2175 H         1 <0>         0.0000
     25 H3          5.3256   -5.3883    2.8641 H         1 <0>         0.0000
     26 H4          4.7804   -5.6761    4.5273 H         1 <0>         0.0000
     27 H5          6.1838   -3.2884    5.9121 H         1 <0>         0.0000
     28 H6          4.8754   -2.1200    5.6540 H         1 <0>         0.0000
     29 H7          4.4947   -3.7797    6.1290 H         1 <0>         0.0000
     30 H8          2.8872   -4.1345   -2.0879 H         1 <0>         0.0000
     31 H9          2.1738   -5.7124   -1.7140 H         1 <0>         0.0000
     32 H10         3.5794   -5.1449   -0.8119 H         1 <0>         0.0000
     33 H11         0.7565   -4.7621    1.6349 H         1 <0>         0.0000
     34 H12         2.3282   -5.5113    1.3711 H         1 <0>         0.0000
     35 H13         0.9158   -6.0685    0.4541 H         1 <0>         0.0000
     36 H14        -0.3050   -3.3025   -0.2384 H         1 <0>         0.0000
     37 H15        -0.1179   -4.6740   -1.3329 H         1 <0>         0.0000
     38 H16         0.5457   -3.0900   -1.7676 H         1 <0>         0.0000
     39 H17        -0.9522   -0.7139    1.8767 H         1 <0>         0.0000
     40 H18        -0.0213    0.7135    1.3710 H         1 <0>         0.0000
     41 H19         0.4945   -0.2269    2.7876 H         1 <0>         0.0000
     42 H20         7.0493   -2.7891    3.5757 H         1 <0>         0.0000
     43 H21         5.7503   -1.6191    3.3985 H         1 <0>         0.0000
     44 H22         7.1283   -2.3661   -0.0797 H         1 <0>         0.0000
     45 H23         7.5195   -1.4064    1.3527 H         1 <0>         0.0000
     46 H24         5.9704   -4.0198    1.5260 H         1 <0>         0.0000
     47 H25         2.6549   -2.1876   -0.4426 H         1 <0>         0.0000
     48 H26         4.0519   -3.4254    3.7195 H         1 <0>         0.0000
     49 H27         0.8872   -0.9429   -0.0594 H         1 <0>         0.0000
     50 H28         3.8157   -4.1378    1.3829 H         1 <0>         0.0000
@<TRIPOS>BOND
     1    1   18 am
     2    1   20 2
     3    2   12 1
     4    2   17 am
     5    2   21 2
     6    3   13 1
     7    3   16 am
     8    3   22 2
     9    4   14 1
    10    5   14 1
    11    6   15 1
    12    7   15 1
    13    8   15 1
    14    9   16 1
    15   10   12 1
    16   10   14 1
    17   11   12 1
    18   11   18 1
    19   13   15 1
    20   13   17 1
    21   18   19 1
    22    1   23 1
    23    4   24 1
    24    4   25 1
    25    4   26 1
    26    5   27 1
    27    5   28 1
    28    5   29 1
    29    6   30 1
    30    6   31 1
    31    6   32 1
    32    7   33 1
    33    7   34 1
    34    7   35 1
    35    8   36 1
    36    8   37 1
    37    8   38 1
    38    9   39 1
    39    9   40 1
    40    9   41 1
    41   10   42 1
    42   10   43 1
    43   11   44 1
    44   11   45 1
    45   12   46 1
    46   13   47 1
    47   14   48 1
    48   16   49 1
    49   17   50 1
@<TRIPOS>MOLECULE
LIGAND
   50    49     0     0     0
SMALL
NO_CHARGES

@<TRIPOS>ATOM
      1 C1          6.0978   -0.9016    4.1132 C.2       1 <0>         0.0000
      2 C2          4.7609   -2.3304    1.0158 C.2       1 <0>         0.0000
      3 C3          1.4114   -2.9063    1.5049 C.2       1 <0>         0.0000
      4 C4          8.5547   -3.1178   -0.0742 C.3       1 <0>         0.0000
      5 C5          7.6782   -5.2829   -0.9666 C.3       1 <0>         0.0000
      6 C6          3.1857   -3.8003   -1.8813 C.3       1 <0>         0.0000
      7 C7          1.9543   -5.3076   -0.3278 C.3       1 <0>         0.0000
      8 C8          0.7370   -3.4626   -1.4991 C.3       1 <0>         0.0000
      9 C9         -0.5781   -1.7107    2.3670 C.3       1 <0>         0.0000
     10 C10         6.4903   -4.2069    0.9698 C.3       1 <0>         0.0000
     11 C11         5.6912   -3.2135    3.1734 C.3       1 <0>         0.0000
     12 C12         5.9953   -2.9363    1.6910 C.3       1 <0>         0.0000
     13 C13         2.4245   -2.8999    0.3599 C.3       1 <0>         0.0000
     14 C14         7.2936   -3.9469   -0.3237 C.3       1 <0>         0.0000
     15 C15         2.0646   -3.8508   -0.8201 C.3       1 <0>         0.0000
     16 N1          0.4604   -1.9038    1.3835 N.am      1 <0>         0.0000
     17 N2          3.6959   -3.2182    0.9688 N.am      1 <0>         0.0000
     18 N3          5.3407   -2.0316    3.9142 N.am      1 <0>         0.0000
     19 O1          4.0837   -2.0623    4.4856 O.3       1 <0>         0.0000
     20 O2          7.2298   -0.7010    3.6833 O.2       1 <0>         0.0000
     21 O3          4.7482   -1.1914    0.5542 O.2       1 <0>         0.0000
     22 O4          1.4623   -3.7076    2.4368 O.2       1 <0>         0.0000
     23 H1          5.5914   -0.1337    4.7244 H         1 <0>         0.0000
     24 H2          9.2158   -3.6219    0.6392 H         1 <0>         0.0000
     25 H3          8.3079   -2.1320    0.3339 H         1 <0>         0.0000
     26 H4          9.1275   -2.9738   -0.9949 H         1 <0>         0.0000
     27 H5          8.3104   -5.8785   -0.2992 H         1 <0>         0.0000
     28 H6          6.7859   -5.8716   -1.2045 H         1 <0>         0.0000
     29 H7          8.2280   -5.1221   -1.9000 H         1 <0>         0.0000
     30 H8          3.3133   -2.7845   -2.2720 H         1 <0>         0.0000
     31 H9          2.9723   -4.4622   -2.7277 H         1 <0>         0.0000
     32 H10         4.1465   -4.1154   -1.4578 H         1 <0>         0.0000
     33 H11         1.1705   -5.4095    0.4319 H         1 <0>         0.0000
     34 H12         2.8879   -5.6535    0.1281 H         1 <0>         0.0000
     35 H13         1.7055   -5.9859   -1.1517 H         1 <0>         0.0000
     36 H14        -0.0909   -3.4848   -0.7807 H         1 <0>         0.0000
     37 H15         0.4812   -4.1517   -2.3109 H         1 <0>         0.0000
     38 H16         0.7762   -2.4505   -1.9146 H         1 <0>         0.0000
     39 H17        -1.4589   -2.3023    2.1044 H         1 <0>         0.0000
     40 H18        -0.8634   -0.6562    2.4133 H         1 <0>         0.0000
     41 H19        -0.2264   -2.0222    3.3542 H         1 <0>         0.0000
     42 H20         7.1160   -4.7876    1.6607 H         1 <0>         0.0000
     43 H21         5.6310   -4.8442    0.7228 H         1 <0>         0.0000
     44 H22         4.8556   -3.9151    3.2682 H         1 <0>         0.0000
     45 H23         6.5563   -3.6574    3.6769 H         1 <0>         0.0000
     46 H24         6.7931   -2.1847    1.6686 H         1 <0>         0.0000
     47 H25         2.5279   -1.8729   -0.0129 H         1 <0>         0.0000
     48 H26         6.6656   -3.4052   -1.0405 H         1 <0>         0.0000
     49 H27         0.4960   -1.2867    0.5777 H         1 <0>         0.0000
     50 H28         3.8157   -4.1378    1.3829 H         1 <0>         0.0000
@<TRIPOS>BOND
     1    1   18 am
     2    1   20 2
     3    2   12 1
     4    2   17 am
     5    2   21 2
     6    3   13 1
     7    3   16 am
     8    3   22 2
     9    4   14 1
    10    5   14 1
    11    6   15 1
    12    7   15 1
    13    8   15 1
    14    9   16 1
    15   10   12 1
    16   10   14 1
    17   11   12 1
    18   11   18 1
    19   13   15 1
    20   13   17 1
    21   18   19 1
    22    1   23 1
    23    4   24 1
    24    4   25 1
    25    4   26 1
    26    5   27 1
    27    5   28 1
    28    5   29 1
    29    6   30 1
    30    6   31 1
    31    6   32 1
    32    7   33 1
    33    7   34 1
    34    7   35 1
    35    8   36 1
    36    8   37 1
    37    8   38 1
    38    9   39 1
    39    9   40 1
    40    9   41 1
    41   10   42 1
    42   10   43 1
    43   11   44 1
    44   11   45 1
    45   12   46 1
    46   13   47 1
    47   14   48 1
    48   16   49 1
    49   17   50 1
@<TRIPOS>MOLECULE
LIGAND
   50    49     0     0     0
SMALL
NO_CHARGES

@<TRIPOS>ATOM
      1 C1          6.3614   -4.3242   -1.3889 C.2       1 <0>         0.0000
      2 C2          4.7609   -2.3304    1.0158 C.2       1 <0>         0.0000
      3 C3          1.6238   -2.1763    1.4428 C.2       1 <0>         0.0000
      4 C4          4.8998   -3.3220    4.5808 C.3       1 <0>         0.0000
      5 C5          5.9126   -1.1117    5.1647 C.3       1 <0>         0.0000
      6 C6          2.6382   -4.8237   -1.2732 C.3       1 <0>         0.0000
      7 C7          1.4139   -5.1834    0.8654 C.3       1 <0>         0.0000
      8 C8          0.3871   -3.7862   -0.9377 C.3       1 <0>         0.0000
      9 C9          0.0532   -0.2939    1.7895 C.3       1 <0>         0.0000
     10 C10         6.4405   -2.1272    2.9267 C.3       1 <0>         0.0000
     11 C11         7.1342   -3.0688    0.6654 C.3       1 <0>         0.0000
     12 C12         5.9953   -2.9363    1.6910 C.3       1 <0>         0.0000
     13 C13         2.4245   -2.8999    0.3599 C.3       1 <0>         0.0000
     14 C14         5.3645   -1.9750    4.0244 C.3       1 <0>         0.0000
     15 C15         1.7114   -4.1488   -0.2382 C.3       1 <0>         0.0000
     16 N1          0.8675   -1.1285    0.9389 N.am      1 <0>         0.0000
     17 N2          3.6959   -3.2182    0.9688 N.am      1 <0>         0.0000
     18 N3          7.0083   -4.2255   -0.1801 N.am      1 <0>         0.0000
     19 O1          7.6218   -5.3633    0.3064 O.3       1 <0>         0.0000
     20 O2          6.2738   -5.3310   -2.0855 O.2       1 <0>         0.0000
     21 O3          4.7482   -1.1914    0.5542 O.2       1 <0>         0.0000
     22 O4          1.6741   -2.4892    2.6314 O.2       1 <0>         0.0000
     23 H1          5.8939   -3.3791   -1.7172 H         1 <0>         0.0000
     24 H2          5.7423   -3.8772    5.0075 H         1 <0>         0.0000
     25 H3          4.4501   -3.9417    3.7978 H         1 <0>         0.0000
     26 H4          4.1642   -3.1925    5.3800 H         1 <0>         0.0000
     27 H5          6.7922   -1.5734    5.6261 H         1 <0>         0.0000
     28 H6          6.2016   -0.1209    4.7985 H         1 <0>         0.0000
     29 H7          5.1564   -0.9697    5.9440 H         1 <0>         0.0000
     30 H8          2.8872   -4.1345   -2.0879 H         1 <0>         0.0000
     31 H9          2.1738   -5.7124   -1.7140 H         1 <0>         0.0000
     32 H10         3.5794   -5.1449   -0.8119 H         1 <0>         0.0000
     33 H11         0.7565   -4.7621    1.6349 H         1 <0>         0.0000
     34 H12         2.3282   -5.5113    1.3711 H         1 <0>         0.0000
     35 H13         0.9158   -6.0685    0.4541 H         1 <0>         0.0000
     36 H14        -0.3050   -3.3025   -0.2384 H         1 <0>         0.0000
     37 H15        -0.1179   -4.6740   -1.3329 H         1 <0>         0.0000
     38 H16         0.5457   -3.0900   -1.7676 H         1 <0>         0.0000
     39 H17        -0.9522   -0.7139    1.8767 H         1 <0>         0.0000
     40 H18        -0.0213    0.7135    1.3710 H         1 <0>         0.0000
     41 H19         0.4945   -0.2269    2.7876 H         1 <0>         0.0000
     42 H20         7.3251   -2.6069    3.3666 H         1 <0>         0.0000
     43 H21         6.7588   -1.1249    2.6110 H         1 <0>         0.0000
     44 H22         7.1645   -2.1910    0.0112 H         1 <0>         0.0000
     45 H23         8.1063   -3.1455    1.1636 H         1 <0>         0.0000
     46 H24         5.7385   -3.9535    2.0094 H         1 <0>         0.0000
     47 H25         2.6549   -2.1876   -0.4426 H         1 <0>         0.0000
     48 H26         4.4913   -1.4577    3.6101 H         1 <0>         0.0000
     49 H27         0.8872   -0.9429   -0.0594 H         1 <0>         0.0000
     50 H28         3.8157   -4.1378    1.3829 H         1 <0>         0.0000
@<TRIPOS>BOND
     1    1   18 am
     2    1   20 2
     3    2   12 1
     4    2   17 am
     5    2   21 2
     6    3   13 1
     7    3   16 am
     8    3   22 2
     9    4   14 1
    10    5   14 1
    11    6   15 1
    12    7   15 1
    13    8   15 1
    14    9   16 1
    15   10   12 1
    16   10   14 1
    17   11   12 1
    18   11   18 1
    19   13   15 1
    20   13   17 1
    21   18   19 1
    22    1   23 1
    23    4   24 1
    24    4   25 1
    25    4   26 1
    26    5   27 1
    27    5   28 1
    28    5   29 1
    29    6   30 1
    30    6   31 1
    31    6   32 1
    32    7   33 1
    33    7   34 1
    34    7   35 1
    35    8   36 1
    36    8   37 1
    37    8   38 1
    38    9   39 1
    39    9   40 1
    40    9   41 1
    41   10   42 1
    42   10   43 1
    43   11   44 1
    44   11   45 1
    45   12   46 1
    46   13   47 1
    47   14   48 1
    48   16   49 1
    49   17   50 1
@<TRIPOS>MOLECULE
LIGAND
   50    49     0     0     0
SMALL
NO_CHARGES

@<TRIPOS>ATOM
      1 C1          4.1712   -1.7701    4.5874 C.2       1 <0>         0.0000
      2 C2          4.7609   -2.3304    1.0158 C.2       1 <0>         0.0000
      3 C3          1.6238   -2.1763    1.4428 C.2       1 <0>         0.0000
      4 C4          7.9668   -2.9805   -0.7195 C.3       1 <0>         0.0000
      5 C5          7.2752   -5.3485   -1.1277 C.3       1 <0>         0.0000
      6 C6          2.6382   -4.8237   -1.2732 C.3       1 <0>         0.0000
      7 C7          1.4139   -5.1834    0.8654 C.3       1 <0>         0.0000
      8 C8          0.3871   -3.7862   -0.9377 C.3       1 <0>         0.0000
      9 C9          0.7109    0.0436    2.0502 C.3       1 <0>         0.0000
     10 C10         6.4903   -4.2069    0.9698 C.3       1 <0>         0.0000
     11 C11         5.6912   -3.2135    3.1734 C.3       1 <0>         0.0000
     12 C12         5.9953   -2.9363    1.6910 C.3       1 <0>         0.0000
     13 C13         2.4245   -2.8999    0.3599 C.3       1 <0>         0.0000
     14 C14         6.8518   -4.0083   -0.5189 C.3       1 <0>         0.0000
     15 C15         1.7114   -4.1488   -0.2382 C.3       1 <0>         0.0000
     16 N1          1.4216   -0.8351    1.1525 N.am      1 <0>         0.0000
     17 N2          3.6959   -3.2182    0.9688 N.am      1 <0>         0.0000
     18 N3          5.3407   -2.0316    3.9142 N.am      1 <0>         0.0000
     19 O1          6.3174   -1.0552    3.9355 O.3       1 <0>         0.0000
     20 O2          3.2011   -2.5170    4.6749 O.2       1 <0>         0.0000
     21 O3          4.7482   -1.1914    0.5542 O.2       1 <0>         0.0000
     22 O4          1.2284   -2.7340    2.4655 O.2       1 <0>         0.0000
     23 H1          4.1565   -0.7806    5.0777 H         1 <0>         0.0000
     24 H2          8.8753   -3.2848   -0.1883 H         1 <0>         0.0000
     25 H3          7.6713   -1.9951   -0.3441 H         1 <0>         0.0000
     26 H4          8.2323   -2.8793   -1.7758 H         1 <0>         0.0000
     27 H5          8.1599   -5.7527   -0.6240 H         1 <0>         0.0000
     28 H6          6.4698   -6.0859   -1.0440 H         1 <0>         0.0000
     29 H7          7.5125   -5.2358   -2.1909 H         1 <0>         0.0000
     30 H8          2.8872   -4.1345   -2.0879 H         1 <0>         0.0000
     31 H9          2.1738   -5.7124   -1.7140 H         1 <0>         0.0000
     32 H10         3.5794   -5.1449   -0.8119 H         1 <0>         0.0000
     33 H11         0.7565   -4.7621    1.6349 H         1 <0>         0.0000
     34 H12         2.3282   -5.5113    1.3711 H         1 <0>         0.0000
     35 H13         0.9158   -6.0685    0.4541 H         1 <0>         0.0000
     36 H14        -0.3050   -3.3025   -0.2384 H         1 <0>         0.0000
     37 H15        -0.1179   -4.6740   -1.3329 H         1 <0>         0.0000
     38 H16         0.5457   -3.0900   -1.7676 H         1 <0>         0.0000
     39 H17        -0.3565    0.0379    1.8148 H         1 <0>         0.0000
     40 H18         1.0868    1.0659    1.9547 H         1 <0>         0.0000
     41 H19         0.8449   -0.2838    3.0846 H         1 <0>         0.0000
     42 H20         7.3727   -4.5944    1.4964 H         1 <0>         0.0000
     43 H21         5.7222   -4.9884    1.0394 H         1 <0>         0.0000
     44 H22         4.8556   -3.9151    3.2682 H         1 <0>         0.0000
     45 H23         6.5563   -3.6574    3.6769 H         1 <0>         0.0000
     46 H24         6.7931   -2.1847    1.6686 H         1 <0>         0.0000
     47 H25         2.6549   -2.1876   -0.4426 H         1 <0>         0.0000
     48 H26         5.9671   -3.6628   -1.0661 H         1 <0>         0.0000
     49 H27         1.7849   -0.4599    0.2815 H         1 <0>         0.0000
     50 H28         3.8157   -4.1378    1.3829 H         1 <0>         0.0000
@<TRIPOS>BOND
     1    1   18 am
     2    1   20 2
     3    2   12 1
     4    2   17 am
     5    2   21 2
     6    3   13 1
     7    3   16 am
     8    3   22 2
     9    4   14 1
    10    5   14 1
    11    6   15 1
    12    7   15 1
    13    8   15 1
    14    9   16 1
    15   10   12 1
    16   10   14 1
    17   11   12 1
    18   11   18 1
    19   13   15 1
    20   13   17 1
    21   18   19 1
    22    1   23 1
    23    4   24 1
    24    4   25 1
    25    4   26 1
    26    5   27 1
    27    5   28 1
    28    5   29 1
    29    6   30 1
    30    6   31 1
    31    6   32 1
    32    7   33 1
    33    7   34 1
    34    7   35 1
    35    8   36 1
    36    8   37 1
    37    8   38 1
    38    9   39 1
    39    9   40 1
    40    9   41 1
    41   10   42 1
    42   10   43 1
    43   11   44 1
    44   11   45 1
    45   12   46 1
    46   13   47 1
    47   14   48 1
    48   16   49 1
    49   17   50 1
@<TRIPOS>MOLECULE
LIGAND
   50    49     0     0     0
SMALL
NO_CHARGES

@<TRIPOS>ATOM
      1 C1          4.0910   -1.4927    4.1069 C.2       1 <0>         0.0000
      2 C2          4.7609   -2.3304    1.0158 C.2       1 <0>         0.0000
      3 C3          1.3743   -3.6105    1.2141 C.2       1 <0>         0.0000
      4 C4          8.5547   -3.1178   -0.0742 C.3       1 <0>         0.0000
      5 C5          7.6782   -5.2829   -0.9666 C.3       1 <0>         0.0000
      6 C6          3.5112   -2.5312   -1.8976 C.3       1 <0>         0.0000
      7 C7          2.5798   -4.7765   -1.3563 C.3       1 <0>         0.0000
      8 C8          1.0336   -2.8618   -1.8044 C.3       1 <0>         0.0000
      9 C9         -0.8899   -3.3247    2.1744 C.3       1 <0>         0.0000
     10 C10         6.4903   -4.2069    0.9698 C.3       1 <0>         0.0000
     11 C11         5.6912   -3.2135    3.1734 C.3       1 <0>         0.0000
     12 C12         5.9953   -2.9363    1.6910 C.3       1 <0>         0.0000
     13 C13         2.4245   -2.8999    0.3599 C.3       1 <0>         0.0000
     14 C14         7.2936   -3.9469   -0.3237 C.3       1 <0>         0.0000
     15 C15         2.3718   -3.2623   -1.1540 C.3       1 <0>         0.0000
     16 N1          0.2223   -2.8565    1.3827 N.am      1 <0>         0.0000
     17 N2          3.6959   -3.2182    0.9688 N.am      1 <0>         0.0000
     18 N3          5.3407   -2.0316    3.9142 N.am      1 <0>         0.0000
     19 O1          6.4105   -1.3768    4.4927 O.3       1 <0>         0.0000
     20 O2          3.0334   -1.9370    3.6701 O.2       1 <0>         0.0000
     21 O3          4.7482   -1.1914    0.5542 O.2       1 <0>         0.0000
     22 O4          1.5569   -4.7218    1.7089 O.2       1 <0>         0.0000
     23 H1          4.0967   -0.5740    4.7198 H         1 <0>         0.0000
     24 H2          9.2158   -3.6219    0.6392 H         1 <0>         0.0000
     25 H3          8.3079   -2.1320    0.3339 H         1 <0>         0.0000
     26 H4          9.1275   -2.9738   -0.9949 H         1 <0>         0.0000
     27 H5          8.3104   -5.8785   -0.2992 H         1 <0>         0.0000
     28 H6          6.7859   -5.8716   -1.2045 H         1 <0>         0.0000
     29 H7          8.2280   -5.1221   -1.9000 H         1 <0>         0.0000
     30 H8          3.4182   -1.4447   -1.7906 H         1 <0>         0.0000
     31 H9          3.5120   -2.7653   -2.9677 H         1 <0>         0.0000
     32 H10         4.4918   -2.8203   -1.5020 H         1 <0>         0.0000
     33 H11         1.7979   -5.3538   -0.8491 H         1 <0>         0.0000
     34 H12         3.5395   -5.1121   -0.9494 H         1 <0>         0.0000
     35 H13         2.5489   -5.0416   -2.4191 H         1 <0>         0.0000
     36 H14         0.1926   -3.3589   -1.3070 H         1 <0>         0.0000
     37 H15         0.9978   -3.1431   -2.8622 H         1 <0>         0.0000
     38 H16         0.8573   -1.7835   -1.7352 H         1 <0>         0.0000
     39 H17        -1.5882   -3.8849    1.5471 H         1 <0>         0.0000
     40 H18        -1.4189   -2.4783    2.6208 H         1 <0>         0.0000
     41 H19        -0.5348   -3.9781    2.9759 H         1 <0>         0.0000
     42 H20         7.1160   -4.7876    1.6607 H         1 <0>         0.0000
     43 H21         5.6310   -4.8442    0.7228 H         1 <0>         0.0000
     44 H22         4.8556   -3.9151    3.2682 H         1 <0>         0.0000
     45 H23         6.5563   -3.6574    3.6769 H         1 <0>         0.0000
     46 H24         6.7931   -2.1847    1.6686 H         1 <0>         0.0000
     47 H25         2.3043   -1.8161    0.4837 H         1 <0>         0.0000
     48 H26         6.6656   -3.4052   -1.0405 H         1 <0>         0.0000
     49 H27         0.1595   -1.9470    0.9352 H         1 <0>         0.0000
     50 H28         3.8157   -4.1378    1.3829 H         1 <0>         0.0000
@<TRIPOS>BOND
     1    1   18 am
     2    1   20 2
     3    2   12 1
     4    2   17 am
     5    2   21 2
     6    3   13 1
     7    3   16 am
     8    3   22 2
     9    4   14 1
    10    5   14 1
    11    6   15 1
    12    7   15 1
    13    8   15 1
    14    9   16 1
    15   10   12 1
    16   10   14 1
    17   11   12 1
    18   11   18 1
    19   13   15 1
    20   13   17 1
    21   18   19 1
    22    1   23 1
    23    4   24 1
    24    4   25 1
    25    4   26 1
    26    5   27 1
    27    5   28 1
    28    5   29 1
    29    6   30 1
    30    6   31 1
    31    6   32 1
    32    7   33 1
    33    7   34 1
    34    7   35 1
    35    8   36 1
    36    8   37 1
    37    8   38 1
    38    9   39 1
    39    9   40 1
    40    9   41 1
    41   10   42 1
    42   10   43 1
    43   11   44 1
    44   11   45 1
    45   12   46 1
    46   13   47 1
    47   14   48 1
    48   16   49 1
    49   17   50 1
@<TRIPOS>MOLECULE
LIGAND
   50    49     0     0     0
SMALL
NO_CHARGES

@<TRIPOS>ATOM
      1 C1          8.6027   -4.5615    0.9314 C.2       1 <0>         0.0000
      2 C2          4.7609   -2.3304    1.0158 C.2       1 <0>         0.0000
      3 C3          1.6238   -2.1763    1.4428 C.2       1 <0>         0.0000
      4 C4          5.4286   -5.0551    3.9022 C.3       1 <0>         0.0000
      5 C5          5.1681   -3.1669    5.5205 C.3       1 <0>         0.0000
      6 C6          2.6382   -4.8237   -1.2732 C.3       1 <0>         0.0000
      7 C7          1.4139   -5.1834    0.8654 C.3       1 <0>         0.0000
      8 C8          0.3871   -3.7862   -0.9377 C.3       1 <0>         0.0000
      9 C9          0.0532   -0.2939    1.7895 C.3       1 <0>         0.0000
     10 C10         6.0212   -2.6662    3.2096 C.3       1 <0>         0.0000
     11 C11         7.2695   -2.4142    1.0053 C.3       1 <0>         0.0000
     12 C12         5.9953   -2.9363    1.6910 C.3       1 <0>         0.0000
     13 C13         2.4245   -2.8999    0.3599 C.3       1 <0>         0.0000
     14 C14         5.0884   -3.5706    4.0452 C.3       1 <0>         0.0000
     15 C15         1.7114   -4.1488   -0.2382 C.3       1 <0>         0.0000
     16 N1          0.8675   -1.1285    0.9389 N.am      1 <0>         0.0000
     17 N2          3.6959   -3.2182    0.9688 N.am      1 <0>         0.0000
     18 N3          8.4249   -3.2358    1.2479 N.am      1 <0>         0.0000
     19 O1          9.4695   -2.5879    1.8778 O.3       1 <0>         0.0000
     20 O2          7.7876   -5.2906    0.3741 O.2       1 <0>         0.0000
     21 O3          4.7482   -1.1914    0.5542 O.2       1 <0>         0.0000
     22 O4          1.6741   -2.4892    2.6314 O.2       1 <0>         0.0000
     23 H1          9.5898   -4.9573    1.2289 H         1 <0>         0.0000
     24 H2          6.4596   -5.2491    4.2175 H         1 <0>         0.0000
     25 H3          5.3256   -5.3883    2.8641 H         1 <0>         0.0000
     26 H4          4.7804   -5.6761    4.5273 H         1 <0>         0.0000
     27 H5          6.1838   -3.2884    5.9121 H         1 <0>         0.0000
     28 H6          4.8754   -2.1200    5.6540 H         1 <0>         0.0000
     29 H7          4.4947   -3.7797    6.1290 H         1 <0>         0.0000
     30 H8          2.8872   -4.1345   -2.0879 H         1 <0>         0.0000
     31 H9          2.1738   -5.7124   -1.7140 H         1 <0>         0.0000
     32 H10         3.5794   -5.1449   -0.8119 H         1 <0>         0.0000
     33 H11         0.7565   -4.7621    1.6349 H         1 <0>         0.0000
     34 H12         2.3282   -5.5113    1.3711 H         1 <0>         0.0000
     35 H13         0.9158   -6.0685    0.4541 H         1 <0>         0.0000
     36 H14        -0.3050   -3.3025   -0.2384 H         1 <0>         0.0000
     37 H15        -0.1179   -4.6740   -1.3329 H         1 <0>         0.0000
     38 H16         0.5457   -3.0900   -1.7676 H         1 <0>         0.0000
     39 H17        -0.9522   -0.7139    1.8767 H         1 <0>         0.0000
     40 H18        -0.0213    0.7135    1.3710 H         1 <0>         0.0000
     41 H19         0.4945   -0.2269    2.7876 H         1 <0>         0.0000
     42 H20         7.0493   -2.7891    3.5757 H         1 <0>         0.0000
     43 H21         5.7503   -1.6191    3.3985 H         1 <0>         0.0000
     44 H22         7.1283   -2.3661   -0.0797 H         1 <0>         0.0000
     45 H23         7.5195   -1.4064    1.3527 H         1 <0>         0.0000
     46 H24         5.9704   -4.0198    1.5260 H         1 <0>         0.0000
     47 H25         2.6549   -2.1876   -0.4426 H         1 <0>         0.0000
     48 H26         4.0519   -3.4254    3.7195 H         1 <0>         0.0000
     49 H27         0.8872   -0.9429   -0.0594 H         1 <0>         0.0000
     50 H28         3.8157   -4.1378    1.3829 H         1 <0>         0.0000
@<TRIPOS>BOND
     1    1   18 am
     2    1   20 2
     3    2   12 1
     4    2   17 am
     5    2   21 2
     6    3   13 1
     7    3   16 am
     8    3   22 2
     9    4   14 1
    10    5   14 1
    11    6   15 1
    12    7   15 1
    13    8   15 1
    14    9   16 1
    15   10   12 1
    16   10   14 1
    17   11   12 1
    18   11   18 1
    19   13   15 1
    20   13   17 1
    21   18   19 1
    22    1   23 1
    23    4   24 1
    24    4   25 1
    25    4   26 1
    26    5   27 1
    27    5   28 1
    28    5   29 1
    29    6   30 1
    30    6   31 1
    31    6   32 1
    32    7   33 1
    33    7   34 1
    34    7   35 1
    35    8   36 1
    36    8   37 1
    37    8   38 1
    38    9   39 1
    39    9   40 1
    40    9   41 1
    41   10   42 1
    42   10   43 1
    43   11   44 1
    44   11   45 1
    45   12   46 1
    46   13   47 1
    47   14   48 1
    48   16   49 1
    49   17   50 1
@<TRIPOS>MOLECULE
LIGAND
   50    49     0     0     0
SMALL
NO_CHARGES

@<TRIPOS>ATOM
      1 C1          6.2227   -3.5568   -1.6421 C.2       1 <0>         0.0000
      2 C2          4.7609   -2.3304    1.0158 C.2       1 <0>         0.0000
      3 C3          1.6238   -2.1763    1.4428 C.2       1 <0>         0.0000
      4 C4          4.8998   -3.3220    4.5808 C.3       1 <0>         0.0000
      5 C5          5.9126   -1.1117    5.1647 C.3       1 <0>         0.0000
      6 C6          2.6382   -4.8237   -1.2732 C.3       1 <0>         0.0000
      7 C7          1.4139   -5.1834    0.8654 C.3       1 <0>         0.0000
      8 C8          0.3871   -3.7862   -0.9377 C.3       1 <0>         0.0000
      9 C9          1.1427   -2.2044    3.8715 C.3       1 <0>         0.0000
     10 C10         6.4405   -2.1272    2.9267 C.3       1 <0>         0.0000
     11 C11         7.1342   -3.0688    0.6654 C.3       1 <0>         0.0000
     12 C12         5.9953   -2.9363    1.6910 C.3       1 <0>         0.0000
     13 C13         2.4245   -2.8999    0.3599 C.3       1 <0>         0.0000
     14 C14         5.3645   -1.9750    4.0244 C.3       1 <0>         0.0000
     15 C15         1.7114   -4.1488   -0.2382 C.3       1 <0>         0.0000
     16 N1          1.8198   -2.7177    2.7048 N.am      1 <0>         0.0000
     17 N2          3.6959   -3.2182    0.9688 N.am      1 <0>         0.0000
     18 N3          6.8025   -3.9159   -0.4486 N.am      1 <0>         0.0000
     19 O1          7.1154   -5.2494   -0.2706 O.3       1 <0>         0.0000
     20 O2          5.8799   -2.4252   -1.9714 O.2       1 <0>         0.0000
     21 O3          4.7482   -1.1914    0.5542 O.2       1 <0>         0.0000
     22 O4          0.8744   -1.2316    1.1999 O.2       1 <0>         0.0000
     23 H1          6.0743   -4.4054   -2.3331 H         1 <0>         0.0000
     24 H2          5.7423   -3.8772    5.0075 H         1 <0>         0.0000
     25 H3          4.4501   -3.9417    3.7978 H         1 <0>         0.0000
     26 H4          4.1642   -3.1925    5.3800 H         1 <0>         0.0000
     27 H5          6.7922   -1.5734    5.6261 H         1 <0>         0.0000
     28 H6          6.2016   -0.1209    4.7985 H         1 <0>         0.0000
     29 H7          5.1564   -0.9697    5.9440 H         1 <0>         0.0000
     30 H8          2.8872   -4.1345   -2.0879 H         1 <0>         0.0000
     31 H9          2.1738   -5.7124   -1.7140 H         1 <0>         0.0000
     32 H10         3.5794   -5.1449   -0.8119 H         1 <0>         0.0000
     33 H11         0.7565   -4.7621    1.6349 H         1 <0>         0.0000
     34 H12         2.3282   -5.5113    1.3711 H         1 <0>         0.0000
     35 H13         0.9158   -6.0685    0.4541 H         1 <0>         0.0000
     36 H14        -0.3050   -3.3025   -0.2384 H         1 <0>         0.0000
     37 H15        -0.1179   -4.6740   -1.3329 H         1 <0>         0.0000
     38 H16         0.5457   -3.0900   -1.7676 H         1 <0>         0.0000
     39 H17         1.7401   -1.4157    4.3360 H         1 <0>         0.0000
     40 H18         0.9874   -3.0042    4.6007 H         1 <0>         0.0000
     41 H19         0.1698   -1.7909    3.5925 H         1 <0>         0.0000
     42 H20         7.3251   -2.6069    3.3666 H         1 <0>         0.0000
     43 H21         6.7588   -1.1249    2.6110 H         1 <0>         0.0000
     44 H22         7.3992   -2.0872    0.2584 H         1 <0>         0.0000
     45 H23         8.0331   -3.4907    1.1269 H         1 <0>         0.0000
     46 H24         5.7385   -3.9535    2.0094 H         1 <0>         0.0000
     47 H25         2.6549   -2.1876   -0.4426 H         1 <0>         0.0000
     48 H26         4.4913   -1.4577    3.6101 H         1 <0>         0.0000
     49 H27         2.4595   -3.4993    2.8111 H         1 <0>         0.0000
     50 H28         3.8157   -4.1378    1.3829 H         1 <0>         0.0000
@<TRIPOS>BOND
     1    1   18 am
     2    1   20 2
     3    2   12 1
     4    2   17 am
     5    2   21 2
     6    3   13 1
     7    3   16 am
     8    3   22 2
     9    4   14 1
    10    5   14 1
    11    6   15 1
    12    7   15 1
    13    8   15 1
    14    9   16 1
    15   10   12 1
    16   10   14 1
    17   11   12 1
    18   11   18 1
    19   13   15 1
    20   13   17 1
    21   18   19 1
    22    1   23 1
    23    4   24 1
    24    4   25 1
    25    4   26 1
    26    5   27 1
    27    5   28 1
    28    5   29 1
    29    6   30 1
    30    6   31 1
    31    6   32 1
    32    7   33 1
    33    7   34 1
    34    7   35 1
    35    8   36 1
    36    8   37 1
    37    8   38 1
    38    9   39 1
    39    9   40 1
    40    9   41 1
    41   10   42 1
    42   10   43 1
    43   11   44 1
    44   11   45 1
    45   12   46 1
    46   13   47 1
    47   14   48 1
    48   16   49 1
    49   17   50 1
@<TRIPOS>MOLECULE
LIGAND
   50    49     0     0     0
SMALL
NO_CHARGES

@<TRIPOS>ATOM
      1 C1          7.3043   -2.3507   -1.3895 C.2       1 <0>         0.0000
      2 C2          4.7609   -2.3304    1.0158 C.2       1 <0>         0.0000
      3 C3          1.4114   -2.9063    1.5049 C.2       1 <0>         0.0000
      4 C4          5.5916   -1.8934    4.5978 C.3       1 <0>         0.0000
      5 C5          7.0929    0.0222    4.0244 C.3       1 <0>         0.0000
      6 C6          3.1857   -3.8003   -1.8813 C.3       1 <0>         0.0000
      7 C7          1.9543   -5.3076   -0.3278 C.3       1 <0>         0.0000
      8 C8          0.7370   -3.4626   -1.4991 C.3       1 <0>         0.0000
      9 C9         -0.5781   -1.7107    2.3670 C.3       1 <0>         0.0000
     10 C10         6.8665   -1.8668    2.3816 C.3       1 <0>         0.0000
     11 C11         6.8055   -3.7427    0.6616 C.3       1 <0>         0.0000
     12 C12         5.9953   -2.9363    1.6910 C.3       1 <0>         0.0000
     13 C13         2.4245   -2.8999    0.3599 C.3       1 <0>         0.0000
     14 C14         6.1374   -1.0321    3.4575 C.3       1 <0>         0.0000
     15 C15         2.0646   -3.8508   -0.8201 C.3       1 <0>         0.0000
     16 N1          0.4604   -1.9038    1.3835 N.am      1 <0>         0.0000
     17 N2          3.6959   -3.2182    0.9688 N.am      1 <0>         0.0000
     18 N3          7.6315   -2.9222   -0.1830 N.am      1 <0>         0.0000
     19 O1          8.9050   -2.6967    0.3017 O.3       1 <0>         0.0000
     20 O2          6.2260   -2.4438   -1.9685 O.2       1 <0>         0.0000
     21 O3          4.7482   -1.1914    0.5542 O.2       1 <0>         0.0000
     22 O4          1.4623   -3.7076    2.4368 O.2       1 <0>         0.0000
     23 H1          8.1259   -1.7633   -1.8363 H         1 <0>         0.0000
     24 H2          6.4006   -2.4456    5.0885 H         1 <0>         0.0000
     25 H3          4.8609   -2.6219    4.2310 H         1 <0>         0.0000
     26 H4          5.1097   -1.2817    5.3659 H         1 <0>         0.0000
     27 H5          7.9623   -0.4436    4.5008 H         1 <0>         0.0000
     28 H6          7.4545    0.6861    3.2321 H         1 <0>         0.0000
     29 H7          6.5886    0.6429    4.7727 H         1 <0>         0.0000
     30 H8          3.3133   -2.7845   -2.2720 H         1 <0>         0.0000
     31 H9          2.9723   -4.4622   -2.7277 H         1 <0>         0.0000
     32 H10         4.1465   -4.1154   -1.4578 H         1 <0>         0.0000
     33 H11         1.1705   -5.4095    0.4319 H         1 <0>         0.0000
     34 H12         2.8879   -5.6535    0.1281 H         1 <0>         0.0000
     35 H13         1.7055   -5.9859   -1.1517 H         1 <0>         0.0000
     36 H14        -0.0909   -3.4848   -0.7807 H         1 <0>         0.0000
     37 H15         0.4812   -4.1517   -2.3109 H         1 <0>         0.0000
     38 H16         0.7762   -2.4505   -1.9146 H         1 <0>         0.0000
     39 H17        -1.4589   -2.3023    2.1044 H         1 <0>         0.0000
     40 H18        -0.8634   -0.6562    2.4133 H         1 <0>         0.0000
     41 H19        -0.2264   -2.0222    3.3542 H         1 <0>         0.0000
     42 H20         7.7322   -2.3581    2.8457 H         1 <0>         0.0000
     43 H21         7.2705   -1.1813    1.6250 H         1 <0>         0.0000
     44 H22         7.4659   -4.4552    1.1672 H         1 <0>         0.0000
     45 H23         6.1454   -4.3134    0.0001 H         1 <0>         0.0000
     46 H24         5.6479   -3.6501    2.4472 H         1 <0>         0.0000
     47 H25         2.5279   -1.8729   -0.0129 H         1 <0>         0.0000
     48 H26         5.2955   -0.5008    2.9986 H         1 <0>         0.0000
     49 H27         0.4960   -1.2867    0.5777 H         1 <0>         0.0000
     50 H28         3.8157   -4.1378    1.3829 H         1 <0>         0.0000
@<TRIPOS>BOND
     1    1   18 am
     2    1   20 2
     3    2   12 1
     4    2   17 am
     5    2   21 2
     6    3   13 1
     7    3   16 am
     8    3   22 2
     9    4   14 1
    10    5   14 1
    11    6   15 1
    12    7   15 1
    13    8   15 1
    14    9   16 1
    15   10   12 1
    16   10   14 1
    17   11   12 1
    18   11   18 1
    19   13   15 1
    20   13   17 1
    21   18   19 1
    22    1   23 1
    23    4   24 1
    24    4   25 1
    25    4   26 1
    26    5   27 1
    27    5   28 1
    28    5   29 1
    29    6   30 1
    30    6   31 1
    31    6   32 1
    32    7   33 1
    33    7   34 1
    34    7   35 1
    35    8   36 1
    36    8   37 1
    37    8   38 1
    38    9   39 1
    39    9   40 1
    40    9   41 1
    41   10   42 1
    42   10   43 1
    43   11   44 1
    44   11   45 1
    45   12   46 1
    46   13   47 1
    47   14   48 1
    48   16   49 1
    49   17   50 1
@<TRIPOS>MOLECULE
LIGAND
   50    49     0     0     0
SMALL
NO_CHARGES

@<TRIPOS>ATOM
      1 C1          7.8677   -2.4259    4.1911 C.2       1 <0>         0.0000
      2 C2          4.7609   -2.3304    1.0158 C.2       1 <0>         0.0000
      3 C3          1.4114   -2.9063    1.5049 C.2       1 <0>         0.0000
      4 C4          8.5547   -3.1178   -0.0742 C.3       1 <0>         0.0000
      5 C5          7.6782   -5.2829   -0.9666 C.3       1 <0>         0.0000
      6 C6          3.1857   -3.8003   -1.8813 C.3       1 <0>         0.0000
      7 C7          1.9543   -5.3076   -0.3278 C.3       1 <0>         0.0000
      8 C8          0.7370   -3.4626   -1.4991 C.3       1 <0>         0.0000
      9 C9         -0.5781   -1.7107    2.3670 C.3       1 <0>         0.0000
     10 C10         6.4903   -4.2069    0.9698 C.3       1 <0>         0.0000
     11 C11         5.6912   -3.2135    3.1734 C.3       1 <0>         0.0000
     12 C12         5.9953   -2.9363    1.6910 C.3       1 <0>         0.0000
     13 C13         2.4245   -2.8999    0.3599 C.3       1 <0>         0.0000
     14 C14         7.2936   -3.9469   -0.3237 C.3       1 <0>         0.0000
     15 C15         2.0646   -3.8508   -0.8201 C.3       1 <0>         0.0000
     16 N1          0.4604   -1.9038    1.3835 N.am      1 <0>         0.0000
     17 N2          3.6959   -3.2182    0.9688 N.am      1 <0>         0.0000
     18 N3          6.8729   -3.3510    3.9817 N.am      1 <0>         0.0000
     19 O1          6.9987   -4.5727    4.6137 O.3       1 <0>         0.0000
     20 O2          7.9211   -1.2964    3.7137 O.2       1 <0>         0.0000
     21 O3          4.7482   -1.1914    0.5542 O.2       1 <0>         0.0000
     22 O4          1.4623   -3.7076    2.4368 O.2       1 <0>         0.0000
     23 H1          8.6698   -2.7848    4.8601 H         1 <0>         0.0000
     24 H2          9.2158   -3.6219    0.6392 H         1 <0>         0.0000
     25 H3          8.3079   -2.1320    0.3339 H         1 <0>         0.0000
     26 H4          9.1275   -2.9738   -0.9949 H         1 <0>         0.0000
     27 H5          8.3104   -5.8785   -0.2992 H         1 <0>         0.0000
     28 H6          6.7859   -5.8716   -1.2045 H         1 <0>         0.0000
     29 H7          8.2280   -5.1221   -1.9000 H         1 <0>         0.0000
     30 H8          3.3133   -2.7845   -2.2720 H         1 <0>         0.0000
     31 H9          2.9723   -4.4622   -2.7277 H         1 <0>         0.0000
     32 H10         4.1465   -4.1154   -1.4578 H         1 <0>         0.0000
     33 H11         1.1705   -5.4095    0.4319 H         1 <0>         0.0000
     34 H12         2.8879   -5.6535    0.1281 H         1 <0>         0.0000
     35 H13         1.7055   -5.9859   -1.1517 H         1 <0>         0.0000
     36 H14        -0.0909   -3.4848   -0.7807 H         1 <0>         0.0000
     37 H15         0.4812   -4.1517   -2.3109 H         1 <0>         0.0000
     38 H16         0.7762   -2.4505   -1.9146 H         1 <0>         0.0000
     39 H17        -1.4589   -2.3023    2.1044 H         1 <0>         0.0000
     40 H18        -0.8634   -0.6562    2.4133 H         1 <0>         0.0000
     41 H19        -0.2264   -2.0222    3.3542 H         1 <0>         0.0000
     42 H20         7.1160   -4.7876    1.6607 H         1 <0>         0.0000
     43 H21         5.6310   -4.8442    0.7228 H         1 <0>         0.0000
     44 H22         5.0986   -2.3982    3.6018 H         1 <0>         0.0000
     45 H23         5.1177   -4.1388    3.2917 H         1 <0>         0.0000
     46 H24         6.7931   -2.1847    1.6686 H         1 <0>         0.0000
     47 H25         2.5279   -1.8729   -0.0129 H         1 <0>         0.0000
     48 H26         6.6656   -3.4052   -1.0405 H         1 <0>         0.0000
     49 H27         0.4960   -1.2867    0.5777 H         1 <0>         0.0000
     50 H28         3.8157   -4.1378    1.3829 H         1 <0>         0.0000
@<TRIPOS>BOND
     1    1   18 am
     2    1   20 2
     3    2   12 1
     4    2   17 am
     5    2   21 2
     6    3   13 1
     7    3   16 am
     8    3   22 2
     9    4   14 1
    10    5   14 1
    11    6   15 1
    12    7   15 1
    13    8   15 1
    14    9   16 1
    15   10   12 1
    16   10   14 1
    17   11   12 1
    18   11   18 1
    19   13   15 1
    20   13   17 1
    21   18   19 1
    22    1   23 1
    23    4   24 1
    24    4   25 1
    25    4   26 1
    26    5   27 1
    27    5   28 1
    28    5   29 1
    29    6   30 1
    30    6   31 1
    31    6   32 1
    32    7   33 1
    33    7   34 1
    34    7   35 1
    35    8   36 1
    36    8   37 1
    37    8   38 1
    38    9   39 1
    39    9   40 1
    40    9   41 1
    41   10   42 1
    42   10   43 1
    43   11   44 1
    44   11   45 1
    45   12   46 1
    46   13   47 1
    47   14   48 1
    48   16   49 1
    49   17   50 1
@<TRIPOS>MOLECULE
LIGAND
   50    49     0     0     0
SMALL
NO_CHARGES

@<TRIPOS>ATOM
      1 C1          9.5089   -2.2247    2.1640 C.2       1 <0>         0.0000
      2 C2          4.7609   -2.3304    1.0158 C.2       1 <0>         0.0000
      3 C3          1.4114   -2.9063    1.5049 C.2       1 <0>         0.0000
      4 C4          5.4286   -5.0551    3.9022 C.3       1 <0>         0.0000
      5 C5          5.1681   -3.1669    5.5205 C.3       1 <0>         0.0000
      6 C6          3.1857   -3.8003   -1.8813 C.3       1 <0>         0.0000
      7 C7          1.9543   -5.3076   -0.3278 C.3       1 <0>         0.0000
      8 C8          0.7370   -3.4626   -1.4991 C.3       1 <0>         0.0000
      9 C9         -0.5781   -1.7107    2.3670 C.3       1 <0>         0.0000
     10 C10         6.0212   -2.6662    3.2096 C.3       1 <0>         0.0000
     11 C11         7.2695   -2.4142    1.0053 C.3       1 <0>         0.0000
     12 C12         5.9953   -2.9363    1.6910 C.3       1 <0>         0.0000
     13 C13         2.4245   -2.8999    0.3599 C.3       1 <0>         0.0000
     14 C14         5.0884   -3.5706    4.0452 C.3       1 <0>         0.0000
     15 C15         2.0646   -3.8508   -0.8201 C.3       1 <0>         0.0000
     16 N1          0.4604   -1.9038    1.3835 N.am      1 <0>         0.0000
     17 N2          3.6959   -3.2182    0.9688 N.am      1 <0>         0.0000
     18 N3          8.4808   -2.9296    1.5848 N.am      1 <0>         0.0000
     19 O1          8.6000   -4.3050    1.5405 O.3       1 <0>         0.0000
     20 O2          9.5729   -1.0054    2.2897 O.2       1 <0>         0.0000
     21 O3          4.7482   -1.1914    0.5542 O.2       1 <0>         0.0000
     22 O4          1.4623   -3.7076    2.4368 O.2       1 <0>         0.0000
     23 H1         10.3290   -2.8651    2.5342 H         1 <0>         0.0000
     24 H2          6.4596   -5.2491    4.2175 H         1 <0>         0.0000
     25 H3          5.3256   -5.3883    2.8641 H         1 <0>         0.0000
     26 H4          4.7804   -5.6761    4.5273 H         1 <0>         0.0000
     27 H5          6.1838   -3.2884    5.9121 H         1 <0>         0.0000
     28 H6          4.8754   -2.1200    5.6540 H         1 <0>         0.0000
     29 H7          4.4947   -3.7797    6.1290 H         1 <0>         0.0000
     30 H8          3.3133   -2.7845   -2.2720 H         1 <0>         0.0000
     31 H9          2.9723   -4.4622   -2.7277 H         1 <0>         0.0000
     32 H10         4.1465   -4.1154   -1.4578 H         1 <0>         0.0000
     33 H11         1.1705   -5.4095    0.4319 H         1 <0>         0.0000
     34 H12         2.8879   -5.6535    0.1281 H         1 <0>         0.0000
     35 H13         1.7055   -5.9859   -1.1517 H         1 <0>         0.0000
     36 H14        -0.0909   -3.4848   -0.7807 H         1 <0>         0.0000
     37 H15         0.4812   -4.1517   -2.3109 H         1 <0>         0.0000
     38 H16         0.7762   -2.4505   -1.9146 H         1 <0>         0.0000
     39 H17        -1.4589   -2.3023    2.1044 H         1 <0>         0.0000
     40 H18        -0.8634   -0.6562    2.4133 H         1 <0>         0.0000
     41 H19        -0.2264   -2.0222    3.3542 H         1 <0>         0.0000
     42 H20         7.0493   -2.7891    3.5757 H         1 <0>         0.0000
     43 H21         5.7503   -1.6191    3.3985 H         1 <0>         0.0000
     44 H22         7.2745   -2.6901   -0.0546 H         1 <0>         0.0000
     45 H23         7.3301   -1.3226    1.0647 H         1 <0>         0.0000
     46 H24         5.9704   -4.0198    1.5260 H         1 <0>         0.0000
     47 H25         2.5279   -1.8729   -0.0129 H         1 <0>         0.0000
     48 H26         4.0519   -3.4254    3.7195 H         1 <0>         0.0000
     49 H27         0.4960   -1.2867    0.5777 H         1 <0>         0.0000
     50 H28         3.8157   -4.1378    1.3829 H         1 <0>         0.0000
@<TRIPOS>BOND
     1    1   18 am
     2    1   20 2
     3    2   12 1
     4    2   17 am
     5    2   21 2
     6    3   13 1
     7    3   16 am
     8    3   22 2
     9    4   14 1
    10    5   14 1
    11    6   15 1
    12    7   15 1
    13    8   15 1
    14    9   16 1
    15   10   12 1
    16   10   14 1
    17   11   12 1
    18   11   18 1
    19   13   15 1
    20   13   17 1
    21   18   19 1
    22    1   23 1
    23    4   24 1
    24    4   25 1
    25    4   26 1
    26    5   27 1
    27    5   28 1
    28    5   29 1
    29    6   30 1
    30    6   31 1
    31    6   32 1
    32    7   33 1
    33    7   34 1
    34    7   35 1
    35    8   36 1
    36    8   37 1
    37    8   38 1
    38    9   39 1
    39    9   40 1
    40    9   41 1
    41   10   42 1
    42   10   43 1
    43   11   44 1
    44   11   45 1
    45   12   46 1
    46   13   47 1
    47   14   48 1
    48   16   49 1
    49   17   50 1
@<TRIPOS>MOLECULE
LIGAND
   50    49     0     0     0
SMALL
NO_CHARGES

@<TRIPOS>ATOM
      1 C1          6.0978   -0.9016    4.1132 C.2       1 <0>         0.0000
      2 C2          4.7609   -2.3304    1.0158 C.2       1 <0>         0.0000
      3 C3          1.6238   -2.1763    1.4428 C.2       1 <0>         0.0000
      4 C4          7.9668   -2.9805   -0.7195 C.3       1 <0>         0.0000
      5 C5          7.2752   -5.3485   -1.1277 C.3       1 <0>         0.0000
      6 C6          2.6382   -4.8237   -1.2732 C.3       1 <0>         0.0000
      7 C7          1.4139   -5.1834    0.8654 C.3       1 <0>         0.0000
      8 C8          0.3871   -3.7862   -0.9377 C.3       1 <0>         0.0000
      9 C9          0.7109    0.0436    2.0502 C.3       1 <0>         0.0000
     10 C10         6.4903   -4.2069    0.9698 C.3       1 <0>         0.0000
     11 C11         5.6912   -3.2135    3.1734 C.3       1 <0>         0.0000
     12 C12         5.9953   -2.9363    1.6910 C.3       1 <0>         0.0000
     13 C13         2.4245   -2.8999    0.3599 C.3       1 <0>         0.0000
     14 C14         6.8518   -4.0083   -0.5189 C.3       1 <0>         0.0000
     15 C15         1.7114   -4.1488   -0.2382 C.3       1 <0>         0.0000
     16 N1          1.4216   -0.8351    1.1525 N.am      1 <0>         0.0000
     17 N2          3.6959   -3.2182    0.9688 N.am      1 <0>         0.0000
     18 N3          5.3407   -2.0316    3.9142 N.am      1 <0>         0.0000
     19 O1          4.0837   -2.0623    4.4856 O.3       1 <0>         0.0000
     20 O2          7.2298   -0.7010    3.6833 O.2       1 <0>         0.0000
     21 O3          4.7482   -1.1914    0.5542 O.2       1 <0>         0.0000
     22 O4          1.2284   -2.7340    2.4655 O.2       1 <0>         0.0000
     23 H1          5.5914   -0.1337    4.7244 H         1 <0>         0.0000
     24 H2          8.8753   -3.2848   -0.1883 H         1 <0>         0.0000
     25 H3          7.6713   -1.9951   -0.3441 H         1 <0>         0.0000
     26 H4          8.2323   -2.8793   -1.7758 H         1 <0>         0.0000
     27 H5          8.1599   -5.7527   -0.6240 H         1 <0>         0.0000
     28 H6          6.4698   -6.0859   -1.0440 H         1 <0>         0.0000
     29 H7          7.5125   -5.2358   -2.1909 H         1 <0>         0.0000
     30 H8          2.8872   -4.1345   -2.0879 H         1 <0>         0.0000
     31 H9          2.1738   -5.7124   -1.7140 H         1 <0>         0.0000
     32 H10         3.5794   -5.1449   -0.8119 H         1 <0>         0.0000
     33 H11         0.7565   -4.7621    1.6349 H         1 <0>         0.0000
     34 H12         2.3282   -5.5113    1.3711 H         1 <0>         0.0000
     35 H13         0.9158   -6.0685    0.4541 H         1 <0>         0.0000
     36 H14        -0.3050   -3.3025   -0.2384 H         1 <0>         0.0000
     37 H15        -0.1179   -4.6740   -1.3329 H         1 <0>         0.0000
     38 H16         0.5457   -3.0900   -1.7676 H         1 <0>         0.0000
     39 H17        -0.3565    0.0379    1.8148 H         1 <0>         0.0000
     40 H18         1.0868    1.0659    1.9547 H         1 <0>         0.0000
     41 H19         0.8449   -0.2838    3.0846 H         1 <0>         0.0000
     42 H20         7.3727   -4.5944    1.4964 H         1 <0>         0.0000
     43 H21         5.7222   -4.9884    1.0394 H         1 <0>         0.0000
     44 H22         4.8556   -3.9151    3.2682 H         1 <0>         0.0000
     45 H23         6.5563   -3.6574    3.6769 H         1 <0>         0.0000
     46 H24         6.7931   -2.1847    1.6686 H         1 <0>         0.0000
     47 H25         2.6549   -2.1876   -0.4426 H         1 <0>         0.0000
     48 H26         5.9671   -3.6628   -1.0661 H         1 <0>         0.0000
     49 H27         1.7849   -0.4599    0.2815 H         1 <0>         0.0000
     50 H28         3.8157   -4.1378    1.3829 H         1 <0>         0.0000
@<TRIPOS>BOND
     1    1   18 am
     2    1   20 2
     3    2   12 1
     4    2   17 am
     5    2   21 2
     6    3   13 1
     7    3   16 am
     8    3   22 2
     9    4   14 1
    10    5   14 1
    11    6   15 1
    12    7   15 1
    13    8   15 1
    14    9   16 1
    15   10   12 1
    16   10   14 1
    17   11   12 1
    18   11   18 1
    19   13   15 1
    20   13   17 1
    21   18   19 1
    22    1   23 1
    23    4   24 1
    24    4   25 1
    25    4   26 1
    26    5   27 1
    27    5   28 1
    28    5   29 1
    29    6   30 1
    30    6   31 1
    31    6   32 1
    32    7   33 1
    33    7   34 1
    34    7   35 1
    35    8   36 1
    36    8   37 1
    37    8   38 1
    38    9   39 1
    39    9   40 1
    40    9   41 1
    41   10   42 1
    42   10   43 1
    43   11   44 1
    44   11   45 1
    45   12   46 1
    46   13   47 1
    47   14   48 1
    48   16   49 1
    49   17   50 1
@<TRIPOS>MOLECULE
LIGAND
   50    49     0     0     0
SMALL
NO_CHARGES

@<TRIPOS>ATOM
      1 C1          8.0812   -5.2529    2.2381 C.2       1 <0>         0.0000
      2 C2          4.7609   -2.3304    1.0158 C.2       1 <0>         0.0000
      3 C3          1.4114   -2.9063    1.5049 C.2       1 <0>         0.0000
      4 C4          6.2068   -2.5045    4.7682 C.3       1 <0>         0.0000
      5 C5          7.2536   -0.2835    4.2952 C.3       1 <0>         0.0000
      6 C6          3.1857   -3.8003   -1.8813 C.3       1 <0>         0.0000
      7 C7          1.9543   -5.3076   -0.3278 C.3       1 <0>         0.0000
      8 C8          0.7370   -3.4626   -1.4991 C.3       1 <0>         0.0000
      9 C9         -0.5781   -1.7107    2.3670 C.3       1 <0>         0.0000
     10 C10         6.8665   -1.8668    2.3816 C.3       1 <0>         0.0000
     11 C11         6.8055   -3.7427    0.6616 C.3       1 <0>         0.0000
     12 C12         5.9953   -2.9363    1.6910 C.3       1 <0>         0.0000
     13 C13         2.4245   -2.8999    0.3599 C.3       1 <0>         0.0000
     14 C14         6.3308   -1.3748    3.7443 C.3       1 <0>         0.0000
     15 C15         2.0646   -3.8508   -0.8201 C.3       1 <0>         0.0000
     16 N1          0.4604   -1.9038    1.3835 N.am      1 <0>         0.0000
     17 N2          3.6959   -3.2182    0.9688 N.am      1 <0>         0.0000
     18 N3          7.9912   -4.3422    1.2125 N.am      1 <0>         0.0000
     19 O1          9.1704   -3.9351    0.6197 O.3       1 <0>         0.0000
     20 O2          7.1439   -5.7230    2.8761 O.2       1 <0>         0.0000
     21 O3          4.7482   -1.1914    0.5542 O.2       1 <0>         0.0000
     22 O4          1.4623   -3.7076    2.4368 O.2       1 <0>         0.0000
     23 H1          9.1177   -5.5563    2.4686 H         1 <0>         0.0000
     24 H2          7.1779   -2.9820    4.9387 H         1 <0>         0.0000
     25 H3          5.5078   -3.2753    4.4268 H         1 <0>         0.0000
     26 H4          5.8592   -2.1311    5.7358 H         1 <0>         0.0000
     27 H5          8.2679   -0.6642    4.4570 H         1 <0>         0.0000
     28 H6          7.3145    0.5617    3.6015 H         1 <0>         0.0000
     29 H7          6.8785    0.0981    5.2508 H         1 <0>         0.0000
     30 H8          3.3133   -2.7845   -2.2720 H         1 <0>         0.0000
     31 H9          2.9723   -4.4622   -2.7277 H         1 <0>         0.0000
     32 H10         4.1465   -4.1154   -1.4578 H         1 <0>         0.0000
     33 H11         1.1705   -5.4095    0.4319 H         1 <0>         0.0000
     34 H12         2.8879   -5.6535    0.1281 H         1 <0>         0.0000
     35 H13         1.7055   -5.9859   -1.1517 H         1 <0>         0.0000
     36 H14        -0.0909   -3.4848   -0.7807 H         1 <0>         0.0000
     37 H15         0.4812   -4.1517   -2.3109 H         1 <0>         0.0000
     38 H16         0.7762   -2.4505   -1.9146 H         1 <0>         0.0000
     39 H17        -1.4589   -2.3023    2.1044 H         1 <0>         0.0000
     40 H18        -0.8634   -0.6562    2.4133 H         1 <0>         0.0000
     41 H19        -0.2264   -2.0222    3.3542 H         1 <0>         0.0000
     42 H20         7.8774   -2.2707    2.5271 H         1 <0>         0.0000
     43 H21         6.9742   -0.9994    1.7170 H         1 <0>         0.0000
     44 H22         6.1970   -4.5521    0.2444 H         1 <0>         0.0000
     45 H23         7.1292   -3.1080   -0.1699 H         1 <0>         0.0000
     46 H24         5.6479   -3.6501    2.4472 H         1 <0>         0.0000
     47 H25         2.5279   -1.8729   -0.0129 H         1 <0>         0.0000
     48 H26         5.3389   -0.9289    3.6068 H         1 <0>         0.0000
     49 H27         0.4960   -1.2867    0.5777 H         1 <0>         0.0000
     50 H28         3.8157   -4.1378    1.3829 H         1 <0>         0.0000
@<TRIPOS>BOND
     1    1   18 am
     2    1   20 2
     3    2   12 1
     4    2   17 am
     5    2   21 2
     6    3   13 1
     7    3   16 am
     8    3   22 2
     9    4   14 1
    10    5   14 1
    11    6   15 1
    12    7   15 1
    13    8   15 1
    14    9   16 1
    15   10   12 1
    16   10   14 1
    17   11   12 1
    18   11   18 1
    19   13   15 1
    20   13   17 1
    21   18   19 1
    22    1   23 1
    23    4   24 1
    24    4   25 1
    25    4   26 1
    26    5   27 1
    27    5   28 1
    28    5   29 1
    29    6   30 1
    30    6   31 1
    31    6   32 1
    32    7   33 1
    33    7   34 1
    34    7   35 1
    35    8   36 1
    36    8   37 1
    37    8   38 1
    38    9   39 1
    39    9   40 1
    40    9   41 1
    41   10   42 1
    42   10   43 1
    43   11   44 1
    44   11   45 1
    45   12   46 1
    46   13   47 1
    47   14   48 1
    48   16   49 1
    49   17   50 1
@<TRIPOS>MOLECULE
LIGAND
   50    49     0     0     0
SMALL
NO_CHARGES

@<TRIPOS>ATOM
      1 C1          7.6891   -2.5737   -1.4831 C.2       1 <0>         0.0000
      2 C2          4.7609   -2.3304    1.0158 C.2       1 <0>         0.0000
      3 C3          1.4114   -2.9063    1.5049 C.2       1 <0>         0.0000
      4 C4          5.4286   -5.0551    3.9022 C.3       1 <0>         0.0000
      5 C5          5.1681   -3.1669    5.5205 C.3       1 <0>         0.0000
      6 C6          3.1857   -3.8003   -1.8813 C.3       1 <0>         0.0000
      7 C7          1.9543   -5.3076   -0.3278 C.3       1 <0>         0.0000
      8 C8          0.7370   -3.4626   -1.4991 C.3       1 <0>         0.0000
      9 C9         -0.5781   -1.7107    2.3670 C.3       1 <0>         0.0000
     10 C10         6.0212   -2.6662    3.2096 C.3       1 <0>         0.0000
     11 C11         7.2695   -2.4142    1.0053 C.3       1 <0>         0.0000
     12 C12         5.9953   -2.9363    1.6910 C.3       1 <0>         0.0000
     13 C13         2.4245   -2.8999    0.3599 C.3       1 <0>         0.0000
     14 C14         5.0884   -3.5706    4.0452 C.3       1 <0>         0.0000
     15 C15         2.0646   -3.8508   -0.8201 C.3       1 <0>         0.0000
     16 N1          0.4604   -1.9038    1.3835 N.am      1 <0>         0.0000
     17 N2          3.6959   -3.2182    0.9688 N.am      1 <0>         0.0000
     18 N3          7.5808   -3.1022   -0.2189 N.am      1 <0>         0.0000
     19 O1          7.7921   -4.4599   -0.0781 O.3       1 <0>         0.0000
     20 O2          7.5355   -1.3961   -1.7935 O.2       1 <0>         0.0000
     21 O3          4.7482   -1.1914    0.5542 O.2       1 <0>         0.0000
     22 O4          1.4623   -3.7076    2.4368 O.2       1 <0>         0.0000
     23 H1          7.9398   -3.3233   -2.2544 H         1 <0>         0.0000
     24 H2          6.4596   -5.2491    4.2175 H         1 <0>         0.0000
     25 H3          5.3256   -5.3883    2.8641 H         1 <0>         0.0000
     26 H4          4.7804   -5.6761    4.5273 H         1 <0>         0.0000
     27 H5          6.1838   -3.2884    5.9121 H         1 <0>         0.0000
     28 H6          4.8754   -2.1200    5.6540 H         1 <0>         0.0000
     29 H7          4.4947   -3.7797    6.1290 H         1 <0>         0.0000
     30 H8          3.3133   -2.7845   -2.2720 H         1 <0>         0.0000
     31 H9          2.9723   -4.4622   -2.7277 H         1 <0>         0.0000
     32 H10         4.1465   -4.1154   -1.4578 H         1 <0>         0.0000
     33 H11         1.1705   -5.4095    0.4319 H         1 <0>         0.0000
     34 H12         2.8879   -5.6535    0.1281 H         1 <0>         0.0000
     35 H13         1.7055   -5.9859   -1.1517 H         1 <0>         0.0000
     36 H14        -0.0909   -3.4848   -0.7807 H         1 <0>         0.0000
     37 H15         0.4812   -4.1517   -2.3109 H         1 <0>         0.0000
     38 H16         0.7762   -2.4505   -1.9146 H         1 <0>         0.0000
     39 H17        -1.4589   -2.3023    2.1044 H         1 <0>         0.0000
     40 H18        -0.8634   -0.6562    2.4133 H         1 <0>         0.0000
     41 H19        -0.2264   -2.0222    3.3542 H         1 <0>         0.0000
     42 H20         7.0493   -2.7891    3.5757 H         1 <0>         0.0000
     43 H21         5.7503   -1.6191    3.3985 H         1 <0>         0.0000
     44 H22         7.1657   -1.3514    0.7623 H         1 <0>         0.0000
     45 H23         8.1413   -2.5219    1.6590 H         1 <0>         0.0000
     46 H24         5.9704   -4.0198    1.5260 H         1 <0>         0.0000
     47 H25         2.5279   -1.8729   -0.0129 H         1 <0>         0.0000
     48 H26         4.0519   -3.4254    3.7195 H         1 <0>         0.0000
     49 H27         0.4960   -1.2867    0.5777 H         1 <0>         0.0000
     50 H28         3.8157   -4.1378    1.3829 H         1 <0>         0.0000
@<TRIPOS>BOND
     1    1   18 am
     2    1   20 2
     3    2   12 1
     4    2   17 am
     5    2   21 2
     6    3   13 1
     7    3   16 am
     8    3   22 2
     9    4   14 1
    10    5   14 1
    11    6   15 1
    12    7   15 1
    13    8   15 1
    14    9   16 1
    15   10   12 1
    16   10   14 1
    17   11   12 1
    18   11   18 1
    19   13   15 1
    20   13   17 1
    21   18   19 1
    22    1   23 1
    23    4   24 1
    24    4   25 1
    25    4   26 1
    26    5   27 1
    27    5   28 1
    28    5   29 1
    29    6   30 1
    30    6   31 1
    31    6   32 1
    32    7   33 1
    33    7   34 1
    34    7   35 1
    35    8   36 1
    36    8   37 1
    37    8   38 1
    38    9   39 1
    39    9   40 1
    40    9   41 1
    41   10   42 1
    42   10   43 1
    43   11   44 1
    44   11   45 1
    45   12   46 1
    46   13   47 1
    47   14   48 1
    48   16   49 1
    49   17   50 1
@<TRIPOS>MOLECULE
LIGAND
   50    49     0     0     0
SMALL
NO_CHARGES

@<TRIPOS>ATOM
      1 C1          6.9917   -5.2723   -0.5666 C.2       1 <0>         0.0000
      2 C2          4.7609   -2.3304    1.0158 C.2       1 <0>         0.0000
      3 C3          1.6238   -2.1763    1.4428 C.2       1 <0>         0.0000
      4 C4          4.8998   -3.3220    4.5808 C.3       1 <0>         0.0000
      5 C5          5.9126   -1.1117    5.1647 C.3       1 <0>         0.0000
      6 C6          2.6382   -4.8237   -1.2732 C.3       1 <0>         0.0000
      7 C7          1.4139   -5.1834    0.8654 C.3       1 <0>         0.0000
      8 C8          0.3871   -3.7862   -0.9377 C.3       1 <0>         0.0000
      9 C9          0.0532   -0.2939    1.7895 C.3       1 <0>         0.0000
     10 C10         6.4405   -2.1272    2.9267 C.3       1 <0>         0.0000
     11 C11         7.1342   -3.0688    0.6654 C.3       1 <0>         0.0000
     12 C12         5.9953   -2.9363    1.6910 C.3       1 <0>         0.0000
     13 C13         2.4245   -2.8999    0.3599 C.3       1 <0>         0.0000
     14 C14         5.3645   -1.9750    4.0244 C.3       1 <0>         0.0000
     15 C15         1.7114   -4.1488   -0.2382 C.3       1 <0>         0.0000
     16 N1          0.8675   -1.1285    0.9389 N.am      1 <0>         0.0000
     17 N2          3.6959   -3.2182    0.9688 N.am      1 <0>         0.0000
     18 N3          6.8025   -3.9159   -0.4486 N.am      1 <0>         0.0000
     19 O1          6.2241   -3.2602   -1.5178 O.3       1 <0>         0.0000
     20 O2          6.6955   -5.9652   -1.5354 O.2       1 <0>         0.0000
     21 O3          4.7482   -1.1914    0.5542 O.2       1 <0>         0.0000
     22 O4          1.6741   -2.4892    2.6314 O.2       1 <0>         0.0000
     23 H1          7.4579   -5.7314    0.3231 H         1 <0>         0.0000
     24 H2          5.7423   -3.8772    5.0075 H         1 <0>         0.0000
     25 H3          4.4501   -3.9417    3.7978 H         1 <0>         0.0000
     26 H4          4.1642   -3.1925    5.3800 H         1 <0>         0.0000
     27 H5          6.7922   -1.5734    5.6261 H         1 <0>         0.0000
     28 H6          6.2016   -0.1209    4.7985 H         1 <0>         0.0000
     29 H7          5.1564   -0.9697    5.9440 H         1 <0>         0.0000
     30 H8          2.8872   -4.1345   -2.0879 H         1 <0>         0.0000
     31 H9          2.1738   -5.7124   -1.7140 H         1 <0>         0.0000
     32 H10         3.5794   -5.1449   -0.8119 H         1 <0>         0.0000
     33 H11         0.7565   -4.7621    1.6349 H         1 <0>         0.0000
     34 H12         2.3282   -5.5113    1.3711 H         1 <0>         0.0000
     35 H13         0.9158   -6.0685    0.4541 H         1 <0>         0.0000
     36 H14        -0.3050   -3.3025   -0.2384 H         1 <0>         0.0000
     37 H15        -0.1179   -4.6740   -1.3329 H         1 <0>         0.0000
     38 H16         0.5457   -3.0900   -1.7676 H         1 <0>         0.0000
     39 H17        -0.9522   -0.7139    1.8767 H         1 <0>         0.0000
     40 H18        -0.0213    0.7135    1.3710 H         1 <0>         0.0000
     41 H19         0.4945   -0.2269    2.7876 H         1 <0>         0.0000
     42 H20         7.3251   -2.6069    3.3666 H         1 <0>         0.0000
     43 H21         6.7588   -1.1249    2.6110 H         1 <0>         0.0000
     44 H22         7.3992   -2.0872    0.2584 H         1 <0>         0.0000
     45 H23         8.0331   -3.4907    1.1269 H         1 <0>         0.0000
     46 H24         5.7385   -3.9535    2.0094 H         1 <0>         0.0000
     47 H25         2.6549   -2.1876   -0.4426 H         1 <0>         0.0000
     48 H26         4.4913   -1.4577    3.6101 H         1 <0>         0.0000
     49 H27         0.8872   -0.9429   -0.0594 H         1 <0>         0.0000
     50 H28         3.8157   -4.1378    1.3829 H         1 <0>         0.0000
@<TRIPOS>BOND
     1    1   18 am
     2    1   20 2
     3    2   12 1
     4    2   17 am
     5    2   21 2
     6    3   13 1
     7    3   16 am
     8    3   22 2
     9    4   14 1
    10    5   14 1
    11    6   15 1
    12    7   15 1
    13    8   15 1
    14    9   16 1
    15   10   12 1
    16   10   14 1
    17   11   12 1
    18   11   18 1
    19   13   15 1
    20   13   17 1
    21   18   19 1
    22    1   23 1
    23    4   24 1
    24    4   25 1
    25    4   26 1
    26    5   27 1
    27    5   28 1
    28    5   29 1
    29    6   30 1
    30    6   31 1
    31    6   32 1
    32    7   33 1
    33    7   34 1
    34    7   35 1
    35    8   36 1
    36    8   37 1
    37    8   38 1
    38    9   39 1
    39    9   40 1
    40    9   41 1
    41   10   42 1
    42   10   43 1
    43   11   44 1
    44   11   45 1
    45   12   46 1
    46   13   47 1
    47   14   48 1
    48   16   49 1
    49   17   50 1
@<TRIPOS>MOLECULE
LIGAND
   50    49     0     0     0
SMALL
NO_CHARGES

@<TRIPOS>ATOM
      1 C1          7.5793   -4.4967    4.2605 C.2       1 <0>         0.0000
      2 C2          4.7609   -2.3304    1.0158 C.2       1 <0>         0.0000
      3 C3          1.6238   -2.1763    1.4428 C.2       1 <0>         0.0000
      4 C4          7.9668   -2.9805   -0.7195 C.3       1 <0>         0.0000
      5 C5          7.2752   -5.3485   -1.1277 C.3       1 <0>         0.0000
      6 C6          2.6382   -4.8237   -1.2732 C.3       1 <0>         0.0000
      7 C7          1.4139   -5.1834    0.8654 C.3       1 <0>         0.0000
      8 C8          0.3871   -3.7862   -0.9377 C.3       1 <0>         0.0000
      9 C9          1.1427   -2.2044    3.8715 C.3       1 <0>         0.0000
     10 C10         6.4903   -4.2069    0.9698 C.3       1 <0>         0.0000
     11 C11         5.6912   -3.2135    3.1734 C.3       1 <0>         0.0000
     12 C12         5.9953   -2.9363    1.6910 C.3       1 <0>         0.0000
     13 C13         2.4245   -2.8999    0.3599 C.3       1 <0>         0.0000
     14 C14         6.8518   -4.0083   -0.5189 C.3       1 <0>         0.0000
     15 C15         1.7114   -4.1488   -0.2382 C.3       1 <0>         0.0000
     16 N1          1.8198   -2.7177    2.7048 N.am      1 <0>         0.0000
     17 N2          3.6959   -3.2182    0.9688 N.am      1 <0>         0.0000
     18 N3          6.8729   -3.3510    3.9817 N.am      1 <0>         0.0000
     19 O1          7.3330   -2.1714    4.5335 O.3       1 <0>         0.0000
     20 O2          7.3180   -5.6268    3.8588 O.2       1 <0>         0.0000
     21 O3          4.7482   -1.1914    0.5542 O.2       1 <0>         0.0000
     22 O4          0.8744   -1.2316    1.1999 O.2       1 <0>         0.0000
     23 H1          8.4551   -4.3273    4.9116 H         1 <0>         0.0000
     24 H2          8.8753   -3.2848   -0.1883 H         1 <0>         0.0000
     25 H3          7.6713   -1.9951   -0.3441 H         1 <0>         0.0000
     26 H4          8.2323   -2.8793   -1.7758 H         1 <0>         0.0000
     27 H5          8.1599   -5.7527   -0.6240 H         1 <0>         0.0000
     28 H6          6.4698   -6.0859   -1.0440 H         1 <0>         0.0000
     29 H7          7.5125   -5.2358   -2.1909 H         1 <0>         0.0000
     30 H8          2.8872   -4.1345   -2.0879 H         1 <0>         0.0000
     31 H9          2.1738   -5.7124   -1.7140 H         1 <0>         0.0000
     32 H10         3.5794   -5.1449   -0.8119 H         1 <0>         0.0000
     33 H11         0.7565   -4.7621    1.6349 H         1 <0>         0.0000
     34 H12         2.3282   -5.5113    1.3711 H         1 <0>         0.0000
     35 H13         0.9158   -6.0685    0.4541 H         1 <0>         0.0000
     36 H14        -0.3050   -3.3025   -0.2384 H         1 <0>         0.0000
     37 H15        -0.1179   -4.6740   -1.3329 H         1 <0>         0.0000
     38 H16         0.5457   -3.0900   -1.7676 H         1 <0>         0.0000
     39 H17         1.7401   -1.4157    4.3360 H         1 <0>         0.0000
     40 H18         0.9874   -3.0042    4.6007 H         1 <0>         0.0000
     41 H19         0.1698   -1.7909    3.5925 H         1 <0>         0.0000
     42 H20         7.3727   -4.5944    1.4964 H         1 <0>         0.0000
     43 H21         5.7222   -4.9884    1.0394 H         1 <0>         0.0000
     44 H22         5.0986   -2.3982    3.6018 H         1 <0>         0.0000
     45 H23         5.1177   -4.1388    3.2917 H         1 <0>         0.0000
     46 H24         6.7931   -2.1847    1.6686 H         1 <0>         0.0000
     47 H25         2.6549   -2.1876   -0.4426 H         1 <0>         0.0000
     48 H26         5.9671   -3.6628   -1.0661 H         1 <0>         0.0000
     49 H27         2.4595   -3.4993    2.8111 H         1 <0>         0.0000
     50 H28         3.8157   -4.1378    1.3829 H         1 <0>         0.0000
@<TRIPOS>BOND
     1    1   18 am
     2    1   20 2
     3    2   12 1
     4    2   17 am
     5    2   21 2
     6    3   13 1
     7    3   16 am
     8    3   22 2
     9    4   14 1
    10    5   14 1
    11    6   15 1
    12    7   15 1
    13    8   15 1
    14    9   16 1
    15   10   12 1
    16   10   14 1
    17   11   12 1
    18   11   18 1
    19   13   15 1
    20   13   17 1
    21   18   19 1
    22    1   23 1
    23    4   24 1
    24    4   25 1
    25    4   26 1
    26    5   27 1
    27    5   28 1
    28    5   29 1
    29    6   30 1
    30    6   31 1
    31    6   32 1
    32    7   33 1
    33    7   34 1
    34    7   35 1
    35    8   36 1
    36    8   37 1
    37    8   38 1
    38    9   39 1
    39    9   40 1
    40    9   41 1
    41   10   42 1
    42   10   43 1
    43   11   44 1
    44   11   45 1
    45   12   46 1
    46   13   47 1
    47   14   48 1
    48   16   49 1
    49   17   50 1
@<TRIPOS>MOLECULE
LIGAND
   50    49     0     0     0
SMALL
NO_CHARGES

@<TRIPOS>ATOM
      1 C1          8.8786   -4.2413    1.6879 C.2       1 <0>         0.0000
      2 C2          4.7609   -2.3304    1.0158 C.2       1 <0>         0.0000
      3 C3          1.4114   -2.9063    1.5049 C.2       1 <0>         0.0000
      4 C4          5.4286   -5.0551    3.9022 C.3       1 <0>         0.0000
      5 C5          5.1681   -3.1669    5.5205 C.3       1 <0>         0.0000
      6 C6          3.1857   -3.8003   -1.8813 C.3       1 <0>         0.0000
      7 C7          1.9543   -5.3076   -0.3278 C.3       1 <0>         0.0000
      8 C8          0.7370   -3.4626   -1.4991 C.3       1 <0>         0.0000
      9 C9         -0.5781   -1.7107    2.3670 C.3       1 <0>         0.0000
     10 C10         6.0212   -2.6662    3.2096 C.3       1 <0>         0.0000
     11 C11         7.2695   -2.4142    1.0053 C.3       1 <0>         0.0000
     12 C12         5.9953   -2.9363    1.6910 C.3       1 <0>         0.0000
     13 C13         2.4245   -2.8999    0.3599 C.3       1 <0>         0.0000
     14 C14         5.0884   -3.5706    4.0452 C.3       1 <0>         0.0000
     15 C15         2.0646   -3.8508   -0.8201 C.3       1 <0>         0.0000
     16 N1          0.4604   -1.9038    1.3835 N.am      1 <0>         0.0000
     17 N2          3.6959   -3.2182    0.9688 N.am      1 <0>         0.0000
     18 N3          8.4808   -2.9296    1.5848 N.am      1 <0>         0.0000
     19 O1          9.3307   -1.9667    2.0928 O.3       1 <0>         0.0000
     20 O2          8.2549   -5.2224    1.2943 O.2       1 <0>         0.0000
     21 O3          4.7482   -1.1914    0.5542 O.2       1 <0>         0.0000
     22 O4          1.4623   -3.7076    2.4368 O.2       1 <0>         0.0000
     23 H1          9.8596   -4.3672    2.1794 H         1 <0>         0.0000
     24 H2          6.4596   -5.2491    4.2175 H         1 <0>         0.0000
     25 H3          5.3256   -5.3883    2.8641 H         1 <0>         0.0000
     26 H4          4.7804   -5.6761    4.5273 H         1 <0>         0.0000
     27 H5          6.1838   -3.2884    5.9121 H         1 <0>         0.0000
     28 H6          4.8754   -2.1200    5.6540 H         1 <0>         0.0000
     29 H7          4.4947   -3.7797    6.1290 H         1 <0>         0.0000
     30 H8          3.3133   -2.7845   -2.2720 H         1 <0>         0.0000
     31 H9          2.9723   -4.4622   -2.7277 H         1 <0>         0.0000
     32 H10         4.1465   -4.1154   -1.4578 H         1 <0>         0.0000
     33 H11         1.1705   -5.4095    0.4319 H         1 <0>         0.0000
     34 H12         2.8879   -5.6535    0.1281 H         1 <0>         0.0000
     35 H13         1.7055   -5.9859   -1.1517 H         1 <0>         0.0000
     36 H14        -0.0909   -3.4848   -0.7807 H         1 <0>         0.0000
     37 H15         0.4812   -4.1517   -2.3109 H         1 <0>         0.0000
     38 H16         0.7762   -2.4505   -1.9146 H         1 <0>         0.0000
     39 H17        -1.4589   -2.3023    2.1044 H         1 <0>         0.0000
     40 H18        -0.8634   -0.6562    2.4133 H         1 <0>         0.0000
     41 H19        -0.2264   -2.0222    3.3542 H         1 <0>         0.0000
     42 H20         7.0493   -2.7891    3.5757 H         1 <0>         0.0000
     43 H21         5.7503   -1.6191    3.3985 H         1 <0>         0.0000
     44 H22         7.2745   -2.6901   -0.0546 H         1 <0>         0.0000
     45 H23         7.3301   -1.3226    1.0647 H         1 <0>         0.0000
     46 H24         5.9704   -4.0198    1.5260 H         1 <0>         0.0000
     47 H25         2.5279   -1.8729   -0.0129 H         1 <0>         0.0000
     48 H26         4.0519   -3.4254    3.7195 H         1 <0>         0.0000
     49 H27         0.4960   -1.2867    0.5777 H         1 <0>         0.0000
     50 H28         3.8157   -4.1378    1.3829 H         1 <0>         0.0000
@<TRIPOS>BOND
     1    1   18 am
     2    1   20 2
     3    2   12 1
     4    2   17 am
     5    2   21 2
     6    3   13 1
     7    3   16 am
     8    3   22 2
     9    4   14 1
    10    5   14 1
    11    6   15 1
    12    7   15 1
    13    8   15 1
    14    9   16 1
    15   10   12 1
    16   10   14 1
    17   11   12 1
    18   11   18 1
    19   13   15 1
    20   13   17 1
    21   18   19 1
    22    1   23 1
    23    4   24 1
    24    4   25 1
    25    4   26 1
    26    5   27 1
    27    5   28 1
    28    5   29 1
    29    6   30 1
    30    6   31 1
    31    6   32 1
    32    7   33 1
    33    7   34 1
    34    7   35 1
    35    8   36 1
    36    8   37 1
    37    8   38 1
    38    9   39 1
    39    9   40 1
    40    9   41 1
    41   10   42 1
    42   10   43 1
    43   11   44 1
    44   11   45 1
    45   12   46 1
    46   13   47 1
    47   14   48 1
    48   16   49 1
    49   17   50 1
@<TRIPOS>MOLECULE
LIGAND
   50    49     0     0     0
SMALL
NO_CHARGES

@<TRIPOS>ATOM
      1 C1          9.0094   -4.5043    1.6394 C.2       1 <0>         0.0000
      2 C2          4.7609   -2.3304    1.0158 C.2       1 <0>         0.0000
      3 C3          1.6238   -2.1763    1.4428 C.2       1 <0>         0.0000
      4 C4          5.5916   -1.8934    4.5978 C.3       1 <0>         0.0000
      5 C5          7.0929    0.0222    4.0244 C.3       1 <0>         0.0000
      6 C6          2.6382   -4.8237   -1.2732 C.3       1 <0>         0.0000
      7 C7          1.4139   -5.1834    0.8654 C.3       1 <0>         0.0000
      8 C8          0.3871   -3.7862   -0.9377 C.3       1 <0>         0.0000
      9 C9          1.1427   -2.2044    3.8715 C.3       1 <0>         0.0000
     10 C10         6.8665   -1.8668    2.3816 C.3       1 <0>         0.0000
     11 C11         6.8055   -3.7427    0.6616 C.3       1 <0>         0.0000
     12 C12         5.9953   -2.9363    1.6910 C.3       1 <0>         0.0000
     13 C13         2.4245   -2.8999    0.3599 C.3       1 <0>         0.0000
     14 C14         6.1374   -1.0321    3.4575 C.3       1 <0>         0.0000
     15 C15         1.7114   -4.1488   -0.2382 C.3       1 <0>         0.0000
     16 N1          1.8198   -2.7177    2.7048 N.am      1 <0>         0.0000
     17 N2          3.6959   -3.2182    0.9688 N.am      1 <0>         0.0000
     18 N3          7.7018   -4.6947    1.2608 N.am      1 <0>         0.0000
     19 O1          7.1560   -5.9460    1.4704 O.3       1 <0>         0.0000
     20 O2          9.6534   -3.4652    1.5292 O.2       1 <0>         0.0000
     21 O3          4.7482   -1.1914    0.5542 O.2       1 <0>         0.0000
     22 O4          0.8744   -1.2316    1.1999 O.2       1 <0>         0.0000
     23 H1          9.4767   -5.4035    2.0784 H         1 <0>         0.0000
     24 H2          6.4006   -2.4456    5.0885 H         1 <0>         0.0000
     25 H3          4.8609   -2.6219    4.2310 H         1 <0>         0.0000
     26 H4          5.1097   -1.2817    5.3659 H         1 <0>         0.0000
     27 H5          7.9623   -0.4436    4.5008 H         1 <0>         0.0000
     28 H6          7.4545    0.6861    3.2321 H         1 <0>         0.0000
     29 H7          6.5886    0.6429    4.7727 H         1 <0>         0.0000
     30 H8          2.8872   -4.1345   -2.0879 H         1 <0>         0.0000
     31 H9          2.1738   -5.7124   -1.7140 H         1 <0>         0.0000
     32 H10         3.5794   -5.1449   -0.8119 H         1 <0>         0.0000
     33 H11         0.7565   -4.7621    1.6349 H         1 <0>         0.0000
     34 H12         2.3282   -5.5113    1.3711 H         1 <0>         0.0000
     35 H13         0.9158   -6.0685    0.4541 H         1 <0>         0.0000
     36 H14        -0.3050   -3.3025   -0.2384 H         1 <0>         0.0000
     37 H15        -0.1179   -4.6740   -1.3329 H         1 <0>         0.0000
     38 H16         0.5457   -3.0900   -1.7676 H         1 <0>         0.0000
     39 H17         1.7401   -1.4157    4.3360 H         1 <0>         0.0000
     40 H18         0.9874   -3.0042    4.6007 H         1 <0>         0.0000
     41 H19         0.1698   -1.7909    3.5925 H         1 <0>         0.0000
     42 H20         7.7322   -2.3581    2.8457 H         1 <0>         0.0000
     43 H21         7.2705   -1.1813    1.6250 H         1 <0>         0.0000
     44 H22         6.1354   -4.3010   -0.0008 H         1 <0>         0.0000
     45 H23         7.4165   -3.0830    0.0367 H         1 <0>         0.0000
     46 H24         5.6479   -3.6501    2.4472 H         1 <0>         0.0000
     47 H25         2.6549   -2.1876   -0.4426 H         1 <0>         0.0000
     48 H26         5.2955   -0.5008    2.9986 H         1 <0>         0.0000
     49 H27         2.4595   -3.4993    2.8111 H         1 <0>         0.0000
     50 H28         3.8157   -4.1378    1.3829 H         1 <0>         0.0000
@<TRIPOS>BOND
     1    1   18 am
     2    1   20 2
     3    2   12 1
     4    2   17 am
     5    2   21 2
     6    3   13 1
     7    3   16 am
     8    3   22 2
     9    4   14 1
    10    5   14 1
    11    6   15 1
    12    7   15 1
    13    8   15 1
    14    9   16 1
    15   10   12 1
    16   10   14 1
    17   11   12 1
    18   11   18 1
    19   13   15 1
    20   13   17 1
    21   18   19 1
    22    1   23 1
    23    4   24 1
    24    4   25 1
    25    4   26 1
    26    5   27 1
    27    5   28 1
    28    5   29 1
    29    6   30 1
    30    6   31 1
    31    6   32 1
    32    7   33 1
    33    7   34 1
    34    7   35 1
    35    8   36 1
    36    8   37 1
    37    8   38 1
    38    9   39 1
    39    9   40 1
    40    9   41 1
    41   10   42 1
    42   10   43 1
    43   11   44 1
    44   11   45 1
    45   12   46 1
    46   13   47 1
    47   14   48 1
    48   16   49 1
    49   17   50 1
@<TRIPOS>MOLECULE
LIGAND
   50    49     0     0     0
SMALL
NO_CHARGES

@<TRIPOS>ATOM
      1 C1          4.1712   -1.7701    4.5874 C.2       1 <0>         0.0000
      2 C2          4.7609   -2.3304    1.0158 C.2       1 <0>         0.0000
      3 C3          1.4114   -2.9063    1.5049 C.2       1 <0>         0.0000
      4 C4          7.9668   -2.9805   -0.7195 C.3       1 <0>         0.0000
      5 C5          7.2752   -5.3485   -1.1277 C.3       1 <0>         0.0000
      6 C6          2.6765   -3.3019   -2.1277 C.3       1 <0>         0.0000
      7 C7          2.6544   -5.2554   -0.5834 C.3       1 <0>         0.0000
      8 C8          0.5425   -3.9869   -1.0173 C.3       1 <0>         0.0000
      9 C9         -0.5781   -1.7107    2.3670 C.3       1 <0>         0.0000
     10 C10         6.4903   -4.2069    0.9698 C.3       1 <0>         0.0000
     11 C11         5.6912   -3.2135    3.1734 C.3       1 <0>         0.0000
     12 C12         5.9953   -2.9363    1.6910 C.3       1 <0>         0.0000
     13 C13         2.4245   -2.8999    0.3599 C.3       1 <0>         0.0000
     14 C14         6.8518   -4.0083   -0.5189 C.3       1 <0>         0.0000
     15 C15         2.0646   -3.8508   -0.8201 C.3       1 <0>         0.0000
     16 N1          0.4604   -1.9038    1.3835 N.am      1 <0>         0.0000
     17 N2          3.6959   -3.2182    0.9688 N.am      1 <0>         0.0000
     18 N3          5.3407   -2.0316    3.9142 N.am      1 <0>         0.0000
     19 O1          6.3174   -1.0552    3.9355 O.3       1 <0>         0.0000
     20 O2          3.2011   -2.5170    4.6749 O.2       1 <0>         0.0000
     21 O3          4.7482   -1.1914    0.5542 O.2       1 <0>         0.0000
     22 O4          1.4623   -3.7076    2.4368 O.2       1 <0>         0.0000
     23 H1          4.1565   -0.7806    5.0777 H         1 <0>         0.0000
     24 H2          8.8753   -3.2848   -0.1883 H         1 <0>         0.0000
     25 H3          7.6713   -1.9951   -0.3441 H         1 <0>         0.0000
     26 H4          8.2323   -2.8793   -1.7758 H         1 <0>         0.0000
     27 H5          8.1599   -5.7527   -0.6240 H         1 <0>         0.0000
     28 H6          6.4698   -6.0859   -1.0440 H         1 <0>         0.0000
     29 H7          7.5125   -5.2358   -2.1909 H         1 <0>         0.0000
     30 H8          2.2940   -2.2998   -2.3517 H         1 <0>         0.0000
     31 H9          2.4502   -3.9477   -2.9831 H         1 <0>         0.0000
     32 H10         3.7681   -3.2311   -2.0551 H         1 <0>         0.0000
     33 H11         2.2564   -5.7011    0.3358 H         1 <0>         0.0000
     34 H12         3.7440   -5.2254   -0.4780 H         1 <0>         0.0000
     35 H13         2.4105   -5.9315   -1.4105 H         1 <0>         0.0000
     36 H14         0.0636   -4.3749   -0.1106 H         1 <0>         0.0000
     37 H15         0.3004   -4.6763   -1.8330 H         1 <0>         0.0000
     38 H16         0.0759   -3.0219   -1.2405 H         1 <0>         0.0000
     39 H17        -1.4589   -2.3023    2.1044 H         1 <0>         0.0000
     40 H18        -0.8634   -0.6562    2.4133 H         1 <0>         0.0000
     41 H19        -0.2264   -2.0222    3.3542 H         1 <0>         0.0000
     42 H20         7.3727   -4.5944    1.4964 H         1 <0>         0.0000
     43 H21         5.7222   -4.9884    1.0394 H         1 <0>         0.0000
     44 H22         4.8556   -3.9151    3.2682 H         1 <0>         0.0000
     45 H23         6.5563   -3.6574    3.6769 H         1 <0>         0.0000
     46 H24         6.7931   -2.1847    1.6686 H         1 <0>         0.0000
     47 H25         2.5279   -1.8729   -0.0129 H         1 <0>         0.0000
     48 H26         5.9671   -3.6628   -1.0661 H         1 <0>         0.0000
     49 H27         0.4960   -1.2867    0.5777 H         1 <0>         0.0000
     50 H28         3.8157   -4.1378    1.3829 H         1 <0>         0.0000
@<TRIPOS>BOND
     1    1   18 am
     2    1   20 2
     3    2   12 1
     4    2   17 am
     5    2   21 2
     6    3   13 1
     7    3   16 am
     8    3   22 2
     9    4   14 1
    10    5   14 1
    11    6   15 1
    12    7   15 1
    13    8   15 1
    14    9   16 1
    15   10   12 1
    16   10   14 1
    17   11   12 1
    18   11   18 1
    19   13   15 1
    20   13   17 1
    21   18   19 1
    22    1   23 1
    23    4   24 1
    24    4   25 1
    25    4   26 1
    26    5   27 1
    27    5   28 1
    28    5   29 1
    29    6   30 1
    30    6   31 1
    31    6   32 1
    32    7   33 1
    33    7   34 1
    34    7   35 1
    35    8   36 1
    36    8   37 1
    37    8   38 1
    38    9   39 1
    39    9   40 1
    40    9   41 1
    41   10   42 1
    42   10   43 1
    43   11   44 1
    44   11   45 1
    45   12   46 1
    46   13   47 1
    47   14   48 1
    48   16   49 1
    49   17   50 1
@<TRIPOS>MOLECULE
LIGAND
   50    49     0     0     0
SMALL
NO_CHARGES

@<TRIPOS>ATOM
      1 C1          6.8953   -4.2650   -1.5494 C.2       1 <0>         0.0000
      2 C2          4.7609   -2.3304    1.0158 C.2       1 <0>         0.0000
      3 C3          1.3743   -3.6105    1.2141 C.2       1 <0>         0.0000
      4 C4          4.8998   -3.3220    4.5808 C.3       1 <0>         0.0000
      5 C5          5.9126   -1.1117    5.1647 C.3       1 <0>         0.0000
      6 C6          3.5112   -2.5312   -1.8976 C.3       1 <0>         0.0000
      7 C7          2.5798   -4.7765   -1.3563 C.3       1 <0>         0.0000
      8 C8          1.0336   -2.8618   -1.8044 C.3       1 <0>         0.0000
      9 C9         -0.8899   -3.3247    2.1744 C.3       1 <0>         0.0000
     10 C10         6.4405   -2.1272    2.9267 C.3       1 <0>         0.0000
     11 C11         7.1342   -3.0688    0.6654 C.3       1 <0>         0.0000
     12 C12         5.9953   -2.9363    1.6910 C.3       1 <0>         0.0000
     13 C13         2.4245   -2.8999    0.3599 C.3       1 <0>         0.0000
     14 C14         5.3645   -1.9750    4.0244 C.3       1 <0>         0.0000
     15 C15         2.3718   -3.2623   -1.1540 C.3       1 <0>         0.0000
     16 N1          0.2223   -2.8565    1.3827 N.am      1 <0>         0.0000
     17 N2          3.6959   -3.2182    0.9688 N.am      1 <0>         0.0000
     18 N3          7.0083   -4.2255   -0.1801 N.am      1 <0>         0.0000
     19 O1          7.0029   -5.4319    0.4925 O.3       1 <0>         0.0000
     20 O2          6.8819   -3.2979   -2.3051 O.2       1 <0>         0.0000
     21 O3          4.7482   -1.1914    0.5542 O.2       1 <0>         0.0000
     22 O4          1.5569   -4.7218    1.7089 O.2       1 <0>         0.0000
     23 H1          6.8117   -5.2886   -1.9555 H         1 <0>         0.0000
     24 H2          5.7423   -3.8772    5.0075 H         1 <0>         0.0000
     25 H3          4.4501   -3.9417    3.7978 H         1 <0>         0.0000
     26 H4          4.1642   -3.1925    5.3800 H         1 <0>         0.0000
     27 H5          6.7922   -1.5734    5.6261 H         1 <0>         0.0000
     28 H6          6.2016   -0.1209    4.7985 H         1 <0>         0.0000
     29 H7          5.1564   -0.9697    5.9440 H         1 <0>         0.0000
     30 H8          3.4182   -1.4447   -1.7906 H         1 <0>         0.0000
     31 H9          3.5120   -2.7653   -2.9677 H         1 <0>         0.0000
     32 H10         4.4918   -2.8203   -1.5020 H         1 <0>         0.0000
     33 H11         1.7979   -5.3538   -0.8491 H         1 <0>         0.0000
     34 H12         3.5395   -5.1121   -0.9494 H         1 <0>         0.0000
     35 H13         2.5489   -5.0416   -2.4191 H         1 <0>         0.0000
     36 H14         0.1926   -3.3589   -1.3070 H         1 <0>         0.0000
     37 H15         0.9978   -3.1431   -2.8622 H         1 <0>         0.0000
     38 H16         0.8573   -1.7835   -1.7352 H         1 <0>         0.0000
     39 H17        -1.5882   -3.8849    1.5471 H         1 <0>         0.0000
     40 H18        -1.4189   -2.4783    2.6208 H         1 <0>         0.0000
     41 H19        -0.5348   -3.9781    2.9759 H         1 <0>         0.0000
     42 H20         7.3251   -2.6069    3.3666 H         1 <0>         0.0000
     43 H21         6.7588   -1.1249    2.6110 H         1 <0>         0.0000
     44 H22         7.1645   -2.1910    0.0112 H         1 <0>         0.0000
     45 H23         8.1063   -3.1455    1.1636 H         1 <0>         0.0000
     46 H24         5.7385   -3.9535    2.0094 H         1 <0>         0.0000
     47 H25         2.3043   -1.8161    0.4837 H         1 <0>         0.0000
     48 H26         4.4913   -1.4577    3.6101 H         1 <0>         0.0000
     49 H27         0.1595   -1.9470    0.9352 H         1 <0>         0.0000
     50 H28         3.8157   -4.1378    1.3829 H         1 <0>         0.0000
@<TRIPOS>BOND
     1    1   18 am
     2    1   20 2
     3    2   12 1
     4    2   17 am
     5    2   21 2
     6    3   13 1
     7    3   16 am
     8    3   22 2
     9    4   14 1
    10    5   14 1
    11    6   15 1
    12    7   15 1
    13    8   15 1
    14    9   16 1
    15   10   12 1
    16   10   14 1
    17   11   12 1
    18   11   18 1
    19   13   15 1
    20   13   17 1
    21   18   19 1
    22    1   23 1
    23    4   24 1
    24    4   25 1
    25    4   26 1
    26    5   27 1
    27    5   28 1
    28    5   29 1
    29    6   30 1
    30    6   31 1
    31    6   32 1
    32    7   33 1
    33    7   34 1
    34    7   35 1
    35    8   36 1
    36    8   37 1
    37    8   38 1
    38    9   39 1
    39    9   40 1
    40    9   41 1
    41   10   42 1
    42   10   43 1
    43   11   44 1
    44   11   45 1
    45   12   46 1
    46   13   47 1
    47   14   48 1
    48   16   49 1
    49   17   50 1
@<TRIPOS>MOLECULE
LIGAND
   50    49     0     0     0
SMALL
NO_CHARGES

@<TRIPOS>ATOM
      1 C1          9.3378   -3.1321    2.2703 C.2       1 <0>         0.0000
      2 C2          4.7609   -2.3304    1.0158 C.2       1 <0>         0.0000
      3 C3          1.3743   -3.6105    1.2141 C.2       1 <0>         0.0000
      4 C4          5.4286   -5.0551    3.9022 C.3       1 <0>         0.0000
      5 C5          5.1681   -3.1669    5.5205 C.3       1 <0>         0.0000
      6 C6          3.5112   -2.5312   -1.8976 C.3       1 <0>         0.0000
      7 C7          2.5798   -4.7765   -1.3563 C.3       1 <0>         0.0000
      8 C8          1.0336   -2.8618   -1.8044 C.3       1 <0>         0.0000
      9 C9         -0.8899   -3.3247    2.1744 C.3       1 <0>         0.0000
     10 C10         6.0212   -2.6662    3.2096 C.3       1 <0>         0.0000
     11 C11         7.2695   -2.4142    1.0053 C.3       1 <0>         0.0000
     12 C12         5.9953   -2.9363    1.6910 C.3       1 <0>         0.0000
     13 C13         2.4245   -2.8999    0.3599 C.3       1 <0>         0.0000
     14 C14         5.0884   -3.5706    4.0452 C.3       1 <0>         0.0000
     15 C15         2.3718   -3.2623   -1.1540 C.3       1 <0>         0.0000
     16 N1          0.2223   -2.8565    1.3827 N.am      1 <0>         0.0000
     17 N2          3.6959   -3.2182    0.9688 N.am      1 <0>         0.0000
     18 N3          8.4249   -3.2358    1.2479 N.am      1 <0>         0.0000
     19 O1          8.6173   -4.2452    0.3251 O.3       1 <0>         0.0000
     20 O2          9.3248   -2.3015    3.1740 O.2       1 <0>         0.0000
     21 O3          4.7482   -1.1914    0.5542 O.2       1 <0>         0.0000
     22 O4          1.5569   -4.7218    1.7089 O.2       1 <0>         0.0000
     23 H1         10.1373   -3.8927    2.2264 H         1 <0>         0.0000
     24 H2          6.4596   -5.2491    4.2175 H         1 <0>         0.0000
     25 H3          5.3256   -5.3883    2.8641 H         1 <0>         0.0000
     26 H4          4.7804   -5.6761    4.5273 H         1 <0>         0.0000
     27 H5          6.1838   -3.2884    5.9121 H         1 <0>         0.0000
     28 H6          4.8754   -2.1200    5.6540 H         1 <0>         0.0000
     29 H7          4.4947   -3.7797    6.1290 H         1 <0>         0.0000
     30 H8          3.4182   -1.4447   -1.7906 H         1 <0>         0.0000
     31 H9          3.5120   -2.7653   -2.9677 H         1 <0>         0.0000
     32 H10         4.4918   -2.8203   -1.5020 H         1 <0>         0.0000
     33 H11         1.7979   -5.3538   -0.8491 H         1 <0>         0.0000
     34 H12         3.5395   -5.1121   -0.9494 H         1 <0>         0.0000
     35 H13         2.5489   -5.0416   -2.4191 H         1 <0>         0.0000
     36 H14         0.1926   -3.3589   -1.3070 H         1 <0>         0.0000
     37 H15         0.9978   -3.1431   -2.8622 H         1 <0>         0.0000
     38 H16         0.8573   -1.7835   -1.7352 H         1 <0>         0.0000
     39 H17        -1.5882   -3.8849    1.5471 H         1 <0>         0.0000
     40 H18        -1.4189   -2.4783    2.6208 H         1 <0>         0.0000
     41 H19        -0.5348   -3.9781    2.9759 H         1 <0>         0.0000
     42 H20         7.0493   -2.7891    3.5757 H         1 <0>         0.0000
     43 H21         5.7503   -1.6191    3.3985 H         1 <0>         0.0000
     44 H22         7.1283   -2.3661   -0.0797 H         1 <0>         0.0000
     45 H23         7.5195   -1.4064    1.3527 H         1 <0>         0.0000
     46 H24         5.9704   -4.0198    1.5260 H         1 <0>         0.0000
     47 H25         2.3043   -1.8161    0.4837 H         1 <0>         0.0000
     48 H26         4.0519   -3.4254    3.7195 H         1 <0>         0.0000
     49 H27         0.1595   -1.9470    0.9352 H         1 <0>         0.0000
     50 H28         3.8157   -4.1378    1.3829 H         1 <0>         0.0000
@<TRIPOS>BOND
     1    1   18 am
     2    1   20 2
     3    2   12 1
     4    2   17 am
     5    2   21 2
     6    3   13 1
     7    3   16 am
     8    3   22 2
     9    4   14 1
    10    5   14 1
    11    6   15 1
    12    7   15 1
    13    8   15 1
    14    9   16 1
    15   10   12 1
    16   10   14 1
    17   11   12 1
    18   11   18 1
    19   13   15 1
    20   13   17 1
    21   18   19 1
    22    1   23 1
    23    4   24 1
    24    4   25 1
    25    4   26 1
    26    5   27 1
    27    5   28 1
    28    5   29 1
    29    6   30 1
    30    6   31 1
    31    6   32 1
    32    7   33 1
    33    7   34 1
    34    7   35 1
    35    8   36 1
    36    8   37 1
    37    8   38 1
    38    9   39 1
    39    9   40 1
    40    9   41 1
    41   10   42 1
    42   10   43 1
    43   11   44 1
    44   11   45 1
    45   12   46 1
    46   13   47 1
    47   14   48 1
    48   16   49 1
    49   17   50 1
@<TRIPOS>MOLECULE
LIGAND
   50    49     0     0     0
SMALL
NO_CHARGES

@<TRIPOS>ATOM
      1 C1          9.5863   -3.0500    1.2820 C.2       1 <0>         0.0000
      2 C2          4.7609   -2.3304    1.0158 C.2       1 <0>         0.0000
      3 C3          1.4114   -2.9063    1.5049 C.2       1 <0>         0.0000
      4 C4          5.6212   -3.8274    4.6518 C.3       1 <0>         0.0000
      5 C5          6.1055   -1.4698    5.3297 C.3       1 <0>         0.0000
      6 C6          3.1857   -3.8003   -1.8813 C.3       1 <0>         0.0000
      7 C7          1.9543   -5.3076   -0.3278 C.3       1 <0>         0.0000
      8 C8          0.7370   -3.4626   -1.4991 C.3       1 <0>         0.0000
      9 C9         -0.5781   -1.7107    2.3670 C.3       1 <0>         0.0000
     10 C10         6.4405   -2.1272    2.9267 C.3       1 <0>         0.0000
     11 C11         7.1342   -3.0688    0.6654 C.3       1 <0>         0.0000
     12 C12         5.9953   -2.9363    1.6910 C.3       1 <0>         0.0000
     13 C13         2.4245   -2.8999    0.3599 C.3       1 <0>         0.0000
     14 C14         5.5959   -2.3669    4.1976 C.3       1 <0>         0.0000
     15 C15         2.0646   -3.8508   -0.8201 C.3       1 <0>         0.0000
     16 N1          0.4604   -1.9038    1.3835 N.am      1 <0>         0.0000
     17 N2          3.6959   -3.2182    0.9688 N.am      1 <0>         0.0000
     18 N3          8.3392   -3.6246    1.2202 N.am      1 <0>         0.0000
     19 O1          8.1975   -4.8927    1.7490 O.3       1 <0>         0.0000
     20 O2          9.8948   -1.9376    0.8648 O.2       1 <0>         0.0000
     21 O3          4.7482   -1.1914    0.5542 O.2       1 <0>         0.0000
     22 O4          1.4623   -3.7076    2.4368 O.2       1 <0>         0.0000
     23 H1         10.3448   -3.6933    1.7620 H         1 <0>         0.0000
     24 H2          6.6467   -4.1510    4.8609 H         1 <0>         0.0000
     25 H3          5.2091   -4.4897    3.8832 H         1 <0>         0.0000
     26 H4          5.0464   -3.9704    5.5714 H         1 <0>         0.0000
     27 H5          7.1480   -1.6962    5.5783 H         1 <0>         0.0000
     28 H6          6.0453   -0.4136    5.0465 H         1 <0>         0.0000
     29 H7          5.5042   -1.6053    6.2348 H         1 <0>         0.0000
     30 H8          3.3133   -2.7845   -2.2720 H         1 <0>         0.0000
     31 H9          2.9723   -4.4622   -2.7277 H         1 <0>         0.0000
     32 H10         4.1465   -4.1154   -1.4578 H         1 <0>         0.0000
     33 H11         1.1705   -5.4095    0.4319 H         1 <0>         0.0000
     34 H12         2.8879   -5.6535    0.1281 H         1 <0>         0.0000
     35 H13         1.7055   -5.9859   -1.1517 H         1 <0>         0.0000
     36 H14        -0.0909   -3.4848   -0.7807 H         1 <0>         0.0000
     37 H15         0.4812   -4.1517   -2.3109 H         1 <0>         0.0000
     38 H16         0.7762   -2.4505   -1.9146 H         1 <0>         0.0000
     39 H17        -1.4589   -2.3023    2.1044 H         1 <0>         0.0000
     40 H18        -0.8634   -0.6562    2.4133 H         1 <0>         0.0000
     41 H19        -0.2264   -2.0222    3.3542 H         1 <0>         0.0000
     42 H20         7.4883   -2.3678    3.1512 H         1 <0>         0.0000
     43 H21         6.4148   -1.0554    2.6895 H         1 <0>         0.0000
     44 H22         6.8299   -3.7170   -0.1632 H         1 <0>         0.0000
     45 H23         7.4005   -2.0938    0.2440 H         1 <0>         0.0000
     46 H24         5.7385   -3.9535    2.0094 H         1 <0>         0.0000
     47 H25         2.5279   -1.8729   -0.0129 H         1 <0>         0.0000
     48 H26         4.5539   -2.0890    4.0008 H         1 <0>         0.0000
     49 H27         0.4960   -1.2867    0.5777 H         1 <0>         0.0000
     50 H28         3.8157   -4.1378    1.3829 H         1 <0>         0.0000
@<TRIPOS>BOND
     1    1   18 am
     2    1   20 2
     3    2   12 1
     4    2   17 am
     5    2   21 2
     6    3   13 1
     7    3   16 am
     8    3   22 2
     9    4   14 1
    10    5   14 1
    11    6   15 1
    12    7   15 1
    13    8   15 1
    14    9   16 1
    15   10   12 1
    16   10   14 1
    17   11   12 1
    18   11   18 1
    19   13   15 1
    20   13   17 1
    21   18   19 1
    22    1   23 1
    23    4   24 1
    24    4   25 1
    25    4   26 1
    26    5   27 1
    27    5   28 1
    28    5   29 1
    29    6   30 1
    30    6   31 1
    31    6   32 1
    32    7   33 1
    33    7   34 1
    34    7   35 1
    35    8   36 1
    36    8   37 1
    37    8   38 1
    38    9   39 1
    39    9   40 1
    40    9   41 1
    41   10   42 1
    42   10   43 1
    43   11   44 1
    44   11   45 1
    45   12   46 1
    46   13   47 1
    47   14   48 1
    48   16   49 1
    49   17   50 1
@<TRIPOS>MOLECULE
LIGAND
   50    49     0     0     0
SMALL
NO_CHARGES

@<TRIPOS>ATOM
      1 C1          7.5793   -4.4967    4.2605 C.2       1 <0>         0.0000
      2 C2          4.7609   -2.3304    1.0158 C.2       1 <0>         0.0000
      3 C3          1.9548   -1.6162    1.0446 C.2       1 <0>         0.0000
      4 C4          7.9668   -2.9805   -0.7195 C.3       1 <0>         0.0000
      5 C5          7.2752   -5.3485   -1.1277 C.3       1 <0>         0.0000
      6 C6          2.0155   -5.3270   -0.2360 C.3       1 <0>         0.0000
      7 C7          1.1035   -4.4371    1.9036 C.3       1 <0>         0.0000
      8 C8          0.0778   -3.7458   -0.2707 C.3       1 <0>         0.0000
      9 C9          0.8348    0.5461    0.5966 C.3       1 <0>         0.0000
     10 C10         6.4903   -4.2069    0.9698 C.3       1 <0>         0.0000
     11 C11         5.6912   -3.2135    3.1734 C.3       1 <0>         0.0000
     12 C12         5.9953   -2.9363    1.6910 C.3       1 <0>         0.0000
     13 C13         2.4245   -2.8999    0.3599 C.3       1 <0>         0.0000
     14 C14         6.8518   -4.0083   -0.5189 C.3       1 <0>         0.0000
     15 C15         1.4067   -4.0765    0.4357 C.3       1 <0>         0.0000
     16 N1          1.3343   -0.7384    0.1680 N.am      1 <0>         0.0000
     17 N2          3.6959   -3.2182    0.9688 N.am      1 <0>         0.0000
     18 N3          6.8729   -3.3510    3.9817 N.am      1 <0>         0.0000
     19 O1          7.3330   -2.1714    4.5335 O.3       1 <0>         0.0000
     20 O2          7.3180   -5.6268    3.8588 O.2       1 <0>         0.0000
     21 O3          4.7482   -1.1914    0.5542 O.2       1 <0>         0.0000
     22 O4          2.1356   -1.3931    2.2407 O.2       1 <0>         0.0000
     23 H1          8.4551   -4.3273    4.9116 H         1 <0>         0.0000
     24 H2          8.8753   -3.2848   -0.1883 H         1 <0>         0.0000
     25 H3          7.6713   -1.9951   -0.3441 H         1 <0>         0.0000
     26 H4          8.2323   -2.8793   -1.7758 H         1 <0>         0.0000
     27 H5          8.1599   -5.7527   -0.6240 H         1 <0>         0.0000
     28 H6          6.4698   -6.0859   -1.0440 H         1 <0>         0.0000
     29 H7          7.5125   -5.2358   -2.1909 H         1 <0>         0.0000
     30 H8          2.2541   -5.1329   -1.2877 H         1 <0>         0.0000
     31 H9          1.3305   -6.1810   -0.1982 H         1 <0>         0.0000
     32 H10         2.9425   -5.6329    0.2628 H         1 <0>         0.0000
     33 H11         0.6668   -3.5850    2.4375 H         1 <0>         0.0000
     34 H12         2.0104   -4.7234    2.4466 H         1 <0>         0.0000
     35 H13         0.3913   -5.2673    1.9681 H         1 <0>         0.0000
     36 H14        -0.3923   -2.8611    0.1746 H         1 <0>         0.0000
     37 H15        -0.6390   -4.5698   -0.1902 H         1 <0>         0.0000
     38 H16         0.2276   -3.5306   -1.3336 H         1 <0>         0.0000
     39 H17        -0.2038    0.4548    0.9249 H         1 <0>         0.0000
     40 H18         0.8817    1.2638   -0.2270 H         1 <0>         0.0000
     41 H19         1.4345    0.9267    1.4277 H         1 <0>         0.0000
     42 H20         7.3727   -4.5944    1.4964 H         1 <0>         0.0000
     43 H21         5.7222   -4.9884    1.0394 H         1 <0>         0.0000
     44 H22         5.0986   -2.3982    3.6018 H         1 <0>         0.0000
     45 H23         5.1177   -4.1388    3.2917 H         1 <0>         0.0000
     46 H24         6.7931   -2.1847    1.6686 H         1 <0>         0.0000
     47 H25         2.6512   -2.6760   -0.6903 H         1 <0>         0.0000
     48 H26         5.9671   -3.6628   -1.0661 H         1 <0>         0.0000
     49 H27         1.2283   -1.0078   -0.8054 H         1 <0>         0.0000
     50 H28         3.8157   -4.1378    1.3829 H         1 <0>         0.0000
@<TRIPOS>BOND
     1    1   18 am
     2    1   20 2
     3    2   12 1
     4    2   17 am
     5    2   21 2
     6    3   13 1
     7    3   16 am
     8    3   22 2
     9    4   14 1
    10    5   14 1
    11    6   15 1
    12    7   15 1
    13    8   15 1
    14    9   16 1
    15   10   12 1
    16   10   14 1
    17   11   12 1
    18   11   18 1
    19   13   15 1
    20   13   17 1
    21   18   19 1
    22    1   23 1
    23    4   24 1
    24    4   25 1
    25    4   26 1
    26    5   27 1
    27    5   28 1
    28    5   29 1
    29    6   30 1
    30    6   31 1
    31    6   32 1
    32    7   33 1
    33    7   34 1
    34    7   35 1
    35    8   36 1
    36    8   37 1
    37    8   38 1
    38    9   39 1
    39    9   40 1
    40    9   41 1
    41   10   42 1
    42   10   43 1
    43   11   44 1
    44   11   45 1
    45   12   46 1
    46   13   47 1
    47   14   48 1
    48   16   49 1
    49   17   50 1
@<TRIPOS>MOLECULE
LIGAND
   50    49     0     0     0
SMALL
NO_CHARGES

@<TRIPOS>ATOM
      1 C1          6.4269   -5.5423    3.8286 C.2       1 <0>         0.0000
      2 C2          4.7609   -2.3304    1.0158 C.2       1 <0>         0.0000
      3 C3          1.6238   -2.1763    1.4428 C.2       1 <0>         0.0000
      4 C4          7.9668   -2.9805   -0.7195 C.3       1 <0>         0.0000
      5 C5          7.2752   -5.3485   -1.1277 C.3       1 <0>         0.0000
      6 C6          2.6382   -4.8237   -1.2732 C.3       1 <0>         0.0000
      7 C7          1.4139   -5.1834    0.8654 C.3       1 <0>         0.0000
      8 C8          0.3871   -3.7862   -0.9377 C.3       1 <0>         0.0000
      9 C9          0.0532   -0.2939    1.7895 C.3       1 <0>         0.0000
     10 C10         6.4903   -4.2069    0.9698 C.3       1 <0>         0.0000
     11 C11         5.6912   -3.2135    3.1734 C.3       1 <0>         0.0000
     12 C12         5.9953   -2.9363    1.6910 C.3       1 <0>         0.0000
     13 C13         2.4245   -2.8999    0.3599 C.3       1 <0>         0.0000
     14 C14         6.8518   -4.0083   -0.5189 C.3       1 <0>         0.0000
     15 C15         1.7114   -4.1488   -0.2382 C.3       1 <0>         0.0000
     16 N1          0.8675   -1.1285    0.9389 N.am      1 <0>         0.0000
     17 N2          3.6959   -3.2182    0.9688 N.am      1 <0>         0.0000
     18 N3          6.5786   -4.1775    3.7667 N.am      1 <0>         0.0000
     19 O1          7.7150   -3.6386    4.3375 O.3       1 <0>         0.0000
     20 O2          5.4864   -6.1895    3.3779 O.2       1 <0>         0.0000
     21 O3          4.7482   -1.1914    0.5542 O.2       1 <0>         0.0000
     22 O4          1.6741   -2.4892    2.6314 O.2       1 <0>         0.0000
     23 H1          7.2586   -6.0555    4.3429 H         1 <0>         0.0000
     24 H2          8.8753   -3.2848   -0.1883 H         1 <0>         0.0000
     25 H3          7.6713   -1.9951   -0.3441 H         1 <0>         0.0000
     26 H4          8.2323   -2.8793   -1.7758 H         1 <0>         0.0000
     27 H5          8.1599   -5.7527   -0.6240 H         1 <0>         0.0000
     28 H6          6.4698   -6.0859   -1.0440 H         1 <0>         0.0000
     29 H7          7.5125   -5.2358   -2.1909 H         1 <0>         0.0000
     30 H8          2.8872   -4.1345   -2.0879 H         1 <0>         0.0000
     31 H9          2.1738   -5.7124   -1.7140 H         1 <0>         0.0000
     32 H10         3.5794   -5.1449   -0.8119 H         1 <0>         0.0000
     33 H11         0.7565   -4.7621    1.6349 H         1 <0>         0.0000
     34 H12         2.3282   -5.5113    1.3711 H         1 <0>         0.0000
     35 H13         0.9158   -6.0685    0.4541 H         1 <0>         0.0000
     36 H14        -0.3050   -3.3025   -0.2384 H         1 <0>         0.0000
     37 H15        -0.1179   -4.6740   -1.3329 H         1 <0>         0.0000
     38 H16         0.5457   -3.0900   -1.7676 H         1 <0>         0.0000
     39 H17        -0.9522   -0.7139    1.8767 H         1 <0>         0.0000
     40 H18        -0.0213    0.7135    1.3710 H         1 <0>         0.0000
     41 H19         0.4945   -0.2269    2.7876 H         1 <0>         0.0000
     42 H20         7.3727   -4.5944    1.4964 H         1 <0>         0.0000
     43 H21         5.7222   -4.9884    1.0394 H         1 <0>         0.0000
     44 H22         5.7741   -2.2925    3.7601 H         1 <0>         0.0000
     45 H23         4.6743   -3.5988    3.3018 H         1 <0>         0.0000
     46 H24         6.7931   -2.1847    1.6686 H         1 <0>         0.0000
     47 H25         2.6549   -2.1876   -0.4426 H         1 <0>         0.0000
     48 H26         5.9671   -3.6628   -1.0661 H         1 <0>         0.0000
     49 H27         0.8872   -0.9429   -0.0594 H         1 <0>         0.0000
     50 H28         3.8157   -4.1378    1.3829 H         1 <0>         0.0000
@<TRIPOS>BOND
     1    1   18 am
     2    1   20 2
     3    2   12 1
     4    2   17 am
     5    2   21 2
     6    3   13 1
     7    3   16 am
     8    3   22 2
     9    4   14 1
    10    5   14 1
    11    6   15 1
    12    7   15 1
    13    8   15 1
    14    9   16 1
    15   10   12 1
    16   10   14 1
    17   11   12 1
    18   11   18 1
    19   13   15 1
    20   13   17 1
    21   18   19 1
    22    1   23 1
    23    4   24 1
    24    4   25 1
    25    4   26 1
    26    5   27 1
    27    5   28 1
    28    5   29 1
    29    6   30 1
    30    6   31 1
    31    6   32 1
    32    7   33 1
    33    7   34 1
    34    7   35 1
    35    8   36 1
    36    8   37 1
    37    8   38 1
    38    9   39 1
    39    9   40 1
    40    9   41 1
    41   10   42 1
    42   10   43 1
    43   11   44 1
    44   11   45 1
    45   12   46 1
    46   13   47 1
    47   14   48 1
    48   16   49 1
    49   17   50 1
@<TRIPOS>MOLECULE
LIGAND
   50    49     0     0     0
SMALL
NO_CHARGES

@<TRIPOS>ATOM
      1 C1          6.8958   -1.5680    4.6682 C.2       1 <0>         0.0000
      2 C2          4.7609   -2.3304    1.0158 C.2       1 <0>         0.0000
      3 C3          1.3743   -3.6105    1.2141 C.2       1 <0>         0.0000
      4 C4          8.5547   -3.1178   -0.0742 C.3       1 <0>         0.0000
      5 C5          7.6782   -5.2829   -0.9666 C.3       1 <0>         0.0000
      6 C6          3.5112   -2.5312   -1.8976 C.3       1 <0>         0.0000
      7 C7          2.5798   -4.7765   -1.3563 C.3       1 <0>         0.0000
      8 C8          1.0336   -2.8618   -1.8044 C.3       1 <0>         0.0000
      9 C9         -0.8899   -3.3247    2.1744 C.3       1 <0>         0.0000
     10 C10         6.4903   -4.2069    0.9698 C.3       1 <0>         0.0000
     11 C11         5.6912   -3.2135    3.1734 C.3       1 <0>         0.0000
     12 C12         5.9953   -2.9363    1.6910 C.3       1 <0>         0.0000
     13 C13         2.4245   -2.8999    0.3599 C.3       1 <0>         0.0000
     14 C14         7.2936   -3.9469   -0.3237 C.3       1 <0>         0.0000
     15 C15         2.3718   -3.2623   -1.1540 C.3       1 <0>         0.0000
     16 N1          0.2223   -2.8565    1.3827 N.am      1 <0>         0.0000
     17 N2          3.6959   -3.2182    0.9688 N.am      1 <0>         0.0000
     18 N3          5.7903   -2.0436    4.0042 N.am      1 <0>         0.0000
     19 O1          4.6156   -1.3288    4.1337 O.3       1 <0>         0.0000
     20 O2          8.0156   -2.0707    4.6671 O.2       1 <0>         0.0000
     21 O3          4.7482   -1.1914    0.5542 O.2       1 <0>         0.0000
     22 O4          1.5569   -4.7218    1.7089 O.2       1 <0>         0.0000
     23 H1          6.7023   -0.6439    5.2411 H         1 <0>         0.0000
     24 H2          9.2158   -3.6219    0.6392 H         1 <0>         0.0000
     25 H3          8.3079   -2.1320    0.3339 H         1 <0>         0.0000
     26 H4          9.1275   -2.9738   -0.9949 H         1 <0>         0.0000
     27 H5          8.3104   -5.8785   -0.2992 H         1 <0>         0.0000
     28 H6          6.7859   -5.8716   -1.2045 H         1 <0>         0.0000
     29 H7          8.2280   -5.1221   -1.9000 H         1 <0>         0.0000
     30 H8          3.4182   -1.4447   -1.7906 H         1 <0>         0.0000
     31 H9          3.5120   -2.7653   -2.9677 H         1 <0>         0.0000
     32 H10         4.4918   -2.8203   -1.5020 H         1 <0>         0.0000
     33 H11         1.7979   -5.3538   -0.8491 H         1 <0>         0.0000
     34 H12         3.5395   -5.1121   -0.9494 H         1 <0>         0.0000
     35 H13         2.5489   -5.0416   -2.4191 H         1 <0>         0.0000
     36 H14         0.1926   -3.3589   -1.3070 H         1 <0>         0.0000
     37 H15         0.9978   -3.1431   -2.8622 H         1 <0>         0.0000
     38 H16         0.8573   -1.7835   -1.7352 H         1 <0>         0.0000
     39 H17        -1.5882   -3.8849    1.5471 H         1 <0>         0.0000
     40 H18        -1.4189   -2.4783    2.6208 H         1 <0>         0.0000
     41 H19        -0.5348   -3.9781    2.9759 H         1 <0>         0.0000
     42 H20         7.1160   -4.7876    1.6607 H         1 <0>         0.0000
     43 H21         5.6310   -4.8442    0.7228 H         1 <0>         0.0000
     44 H22         4.6761   -3.6079    3.2888 H         1 <0>         0.0000
     45 H23         6.3842   -3.9541    3.5861 H         1 <0>         0.0000
     46 H24         6.7931   -2.1847    1.6686 H         1 <0>         0.0000
     47 H25         2.3043   -1.8161    0.4837 H         1 <0>         0.0000
     48 H26         6.6656   -3.4052   -1.0405 H         1 <0>         0.0000
     49 H27         0.1595   -1.9470    0.9352 H         1 <0>         0.0000
     50 H28         3.8157   -4.1378    1.3829 H         1 <0>         0.0000
@<TRIPOS>BOND
     1    1   18 am
     2    1   20 2
     3    2   12 1
     4    2   17 am
     5    2   21 2
     6    3   13 1
     7    3   16 am
     8    3   22 2
     9    4   14 1
    10    5   14 1
    11    6   15 1
    12    7   15 1
    13    8   15 1
    14    9   16 1
    15   10   12 1
    16   10   14 1
    17   11   12 1
    18   11   18 1
    19   13   15 1
    20   13   17 1
    21   18   19 1
    22    1   23 1
    23    4   24 1
    24    4   25 1
    25    4   26 1
    26    5   27 1
    27    5   28 1
    28    5   29 1
    29    6   30 1
    30    6   31 1
    31    6   32 1
    32    7   33 1
    33    7   34 1
    34    7   35 1
    35    8   36 1
    36    8   37 1
    37    8   38 1
    38    9   39 1
    39    9   40 1
    40    9   41 1
    41   10   42 1
    42   10   43 1
    43   11   44 1
    44   11   45 1
    45   12   46 1
    46   13   47 1
    47   14   48 1
    48   16   49 1
    49   17   50 1
@<TRIPOS>MOLECULE
LIGAND
   50    49     0     0     0
SMALL
NO_CHARGES

@<TRIPOS>ATOM
      1 C1          8.7185   -5.1949    0.9438 C.2       1 <0>         0.0000
      2 C2          4.7609   -2.3304    1.0158 C.2       1 <0>         0.0000
      3 C3          1.4114   -2.9063    1.5049 C.2       1 <0>         0.0000
      4 C4          7.0285   -1.4411    4.2202 C.3       1 <0>         0.0000
      5 C5          8.3048    0.0740    2.6945 C.3       1 <0>         0.0000
      6 C6          3.1857   -3.8003   -1.8813 C.3       1 <0>         0.0000
      7 C7          1.9543   -5.3076   -0.3278 C.3       1 <0>         0.0000
      8 C8          0.7370   -3.4626   -1.4991 C.3       1 <0>         0.0000
      9 C9         -0.5781   -1.7107    2.3670 C.3       1 <0>         0.0000
     10 C10         7.1850   -1.9548    1.7203 C.3       1 <0>         0.0000
     11 C11         6.3716   -4.2554    0.9948 C.3       1 <0>         0.0000
     12 C12         5.9953   -2.9363    1.6910 C.3       1 <0>         0.0000
     13 C13         2.4245   -2.8999    0.3599 C.3       1 <0>         0.0000
     14 C14         7.0962   -0.8603    2.8067 C.3       1 <0>         0.0000
     15 C15         2.0646   -3.8508   -0.8201 C.3       1 <0>         0.0000
     16 N1          0.4604   -1.9038    1.3835 N.am      1 <0>         0.0000
     17 N2          3.6959   -3.2182    0.9688 N.am      1 <0>         0.0000
     18 N3          7.5302   -4.8900    1.5637 N.am      1 <0>         0.0000
     19 O1          7.4064   -5.2237    2.8983 O.3       1 <0>         0.0000
     20 O2          9.0034   -4.9733   -0.2294 O.2       1 <0>         0.0000
     21 O3          4.7482   -1.1914    0.5542 O.2       1 <0>         0.0000
     22 O4          1.4623   -3.7076    2.4368 O.2       1 <0>         0.0000
     23 H1          9.4507   -5.6841    1.6104 H         1 <0>         0.0000
     24 H2          7.9109   -2.0554    4.4301 H         1 <0>         0.0000
     25 H3          6.1416   -2.0705    4.3492 H         1 <0>         0.0000
     26 H4          7.0010   -0.6512    4.9764 H         1 <0>         0.0000
     27 H5          9.2434   -0.4691    2.8487 H         1 <0>         0.0000
     28 H6          8.3428    0.5443    1.7062 H         1 <0>         0.0000
     29 H7          8.2495    0.8738    3.4405 H         1 <0>         0.0000
     30 H8          3.3133   -2.7845   -2.2720 H         1 <0>         0.0000
     31 H9          2.9723   -4.4622   -2.7277 H         1 <0>         0.0000
     32 H10         4.1465   -4.1154   -1.4578 H         1 <0>         0.0000
     33 H11         1.1705   -5.4095    0.4319 H         1 <0>         0.0000
     34 H12         2.8879   -5.6535    0.1281 H         1 <0>         0.0000
     35 H13         1.7055   -5.9859   -1.1517 H         1 <0>         0.0000
     36 H14        -0.0909   -3.4848   -0.7807 H         1 <0>         0.0000
     37 H15         0.4812   -4.1517   -2.3109 H         1 <0>         0.0000
     38 H16         0.7762   -2.4505   -1.9146 H         1 <0>         0.0000
     39 H17        -1.4589   -2.3023    2.1044 H         1 <0>         0.0000
     40 H18        -0.8634   -0.6562    2.4133 H         1 <0>         0.0000
     41 H19        -0.2264   -2.0222    3.3542 H         1 <0>         0.0000
     42 H20         8.1124   -2.5237    1.8705 H         1 <0>         0.0000
     43 H21         7.2788   -1.4660    0.7417 H         1 <0>         0.0000
     44 H22         5.5455   -4.9716    1.0590 H         1 <0>         0.0000
     45 H23         6.5888   -4.0932   -0.0661 H         1 <0>         0.0000
     46 H24         5.7229   -3.1911    2.7220 H         1 <0>         0.0000
     47 H25         2.5279   -1.8729   -0.0129 H         1 <0>         0.0000
     48 H26         6.1964   -0.2560    2.6429 H         1 <0>         0.0000
     49 H27         0.4960   -1.2867    0.5777 H         1 <0>         0.0000
     50 H28         3.8157   -4.1378    1.3829 H         1 <0>         0.0000
@<TRIPOS>BOND
     1    1   18 am
     2    1   20 2
     3    2   12 1
     4    2   17 am
     5    2   21 2
     6    3   13 1
     7    3   16 am
     8    3   22 2
     9    4   14 1
    10    5   14 1
    11    6   15 1
    12    7   15 1
    13    8   15 1
    14    9   16 1
    15   10   12 1
    16   10   14 1
    17   11   12 1
    18   11   18 1
    19   13   15 1
    20   13   17 1
    21   18   19 1
    22    1   23 1
    23    4   24 1
    24    4   25 1
    25    4   26 1
    26    5   27 1
    27    5   28 1
    28    5   29 1
    29    6   30 1
    30    6   31 1
    31    6   32 1
    32    7   33 1
    33    7   34 1
    34    7   35 1
    35    8   36 1
    36    8   37 1
    37    8   38 1
    38    9   39 1
    39    9   40 1
    40    9   41 1
    41   10   42 1
    42   10   43 1
    43   11   44 1
    44   11   45 1
    45   12   46 1
    46   13   47 1
    47   14   48 1
    48   16   49 1
    49   17   50 1
@<TRIPOS>MOLECULE
LIGAND
   50    49     0     0     0
SMALL
NO_CHARGES

@<TRIPOS>ATOM
      1 C1          7.5793   -4.4967    4.2605 C.2       1 <0>         0.0000
      2 C2          4.7609   -2.3304    1.0158 C.2       1 <0>         0.0000
      3 C3          1.3743   -3.6105    1.2141 C.2       1 <0>         0.0000
      4 C4          8.5547   -3.1178   -0.0742 C.3       1 <0>         0.0000
      5 C5          7.6782   -5.2829   -0.9666 C.3       1 <0>         0.0000
      6 C6          3.5112   -2.5312   -1.8976 C.3       1 <0>         0.0000
      7 C7          2.5798   -4.7765   -1.3563 C.3       1 <0>         0.0000
      8 C8          1.0336   -2.8618   -1.8044 C.3       1 <0>         0.0000
      9 C9         -0.8899   -3.3247    2.1744 C.3       1 <0>         0.0000
     10 C10         6.4903   -4.2069    0.9698 C.3       1 <0>         0.0000
     11 C11         5.6912   -3.2135    3.1734 C.3       1 <0>         0.0000
     12 C12         5.9953   -2.9363    1.6910 C.3       1 <0>         0.0000
     13 C13         2.4245   -2.8999    0.3599 C.3       1 <0>         0.0000
     14 C14         7.2936   -3.9469   -0.3237 C.3       1 <0>         0.0000
     15 C15         2.3718   -3.2623   -1.1540 C.3       1 <0>         0.0000
     16 N1          0.2223   -2.8565    1.3827 N.am      1 <0>         0.0000
     17 N2          3.6959   -3.2182    0.9688 N.am      1 <0>         0.0000
     18 N3          6.8729   -3.3510    3.9817 N.am      1 <0>         0.0000
     19 O1          7.3330   -2.1714    4.5335 O.3       1 <0>         0.0000
     20 O2          7.3180   -5.6268    3.8588 O.2       1 <0>         0.0000
     21 O3          4.7482   -1.1914    0.5542 O.2       1 <0>         0.0000
     22 O4          1.5569   -4.7218    1.7089 O.2       1 <0>         0.0000
     23 H1          8.4551   -4.3273    4.9116 H         1 <0>         0.0000
     24 H2          9.2158   -3.6219    0.6392 H         1 <0>         0.0000
     25 H3          8.3079   -2.1320    0.3339 H         1 <0>         0.0000
     26 H4          9.1275   -2.9738   -0.9949 H         1 <0>         0.0000
     27 H5          8.3104   -5.8785   -0.2992 H         1 <0>         0.0000
     28 H6          6.7859   -5.8716   -1.2045 H         1 <0>         0.0000
     29 H7          8.2280   -5.1221   -1.9000 H         1 <0>         0.0000
     30 H8          3.4182   -1.4447   -1.7906 H         1 <0>         0.0000
     31 H9          3.5120   -2.7653   -2.9677 H         1 <0>         0.0000
     32 H10         4.4918   -2.8203   -1.5020 H         1 <0>         0.0000
     33 H11         1.7979   -5.3538   -0.8491 H         1 <0>         0.0000
     34 H12         3.5395   -5.1121   -0.9494 H         1 <0>         0.0000
     35 H13         2.5489   -5.0416   -2.4191 H         1 <0>         0.0000
     36 H14         0.1926   -3.3589   -1.3070 H         1 <0>         0.0000
     37 H15         0.9978   -3.1431   -2.8622 H         1 <0>         0.0000
     38 H16         0.8573   -1.7835   -1.7352 H         1 <0>         0.0000
     39 H17        -1.5882   -3.8849    1.5471 H         1 <0>         0.0000
     40 H18        -1.4189   -2.4783    2.6208 H         1 <0>         0.0000
     41 H19        -0.5348   -3.9781    2.9759 H         1 <0>         0.0000
     42 H20         7.1160   -4.7876    1.6607 H         1 <0>         0.0000
     43 H21         5.6310   -4.8442    0.7228 H         1 <0>         0.0000
     44 H22         5.0986   -2.3982    3.6018 H         1 <0>         0.0000
     45 H23         5.1177   -4.1388    3.2917 H         1 <0>         0.0000
     46 H24         6.7931   -2.1847    1.6686 H         1 <0>         0.0000
     47 H25         2.3043   -1.8161    0.4837 H         1 <0>         0.0000
     48 H26         6.6656   -3.4052   -1.0405 H         1 <0>         0.0000
     49 H27         0.1595   -1.9470    0.9352 H         1 <0>         0.0000
     50 H28         3.8157   -4.1378    1.3829 H         1 <0>         0.0000
@<TRIPOS>BOND
     1    1   18 am
     2    1   20 2
     3    2   12 1
     4    2   17 am
     5    2   21 2
     6    3   13 1
     7    3   16 am
     8    3   22 2
     9    4   14 1
    10    5   14 1
    11    6   15 1
    12    7   15 1
    13    8   15 1
    14    9   16 1
    15   10   12 1
    16   10   14 1
    17   11   12 1
    18   11   18 1
    19   13   15 1
    20   13   17 1
    21   18   19 1
    22    1   23 1
    23    4   24 1
    24    4   25 1
    25    4   26 1
    26    5   27 1
    27    5   28 1
    28    5   29 1
    29    6   30 1
    30    6   31 1
    31    6   32 1
    32    7   33 1
    33    7   34 1
    34    7   35 1
    35    8   36 1
    36    8   37 1
    37    8   38 1
    38    9   39 1
    39    9   40 1
    40    9   41 1
    41   10   42 1
    42   10   43 1
    43   11   44 1
    44   11   45 1
    45   12   46 1
    46   13   47 1
    47   14   48 1
    48   16   49 1
    49   17   50 1
@<TRIPOS>MOLECULE
LIGAND
   50    49     0     0     0
SMALL
NO_CHARGES

@<TRIPOS>ATOM
      1 C1          6.9731   -5.5477    0.1940 C.2       1 <0>         0.0000
      2 C2          4.7609   -2.3304    1.0158 C.2       1 <0>         0.0000
      3 C3          1.3743   -3.6105    1.2141 C.2       1 <0>         0.0000
      4 C4          4.8998   -3.3220    4.5808 C.3       1 <0>         0.0000
      5 C5          5.9126   -1.1117    5.1647 C.3       1 <0>         0.0000
      6 C6          3.5112   -2.5312   -1.8976 C.3       1 <0>         0.0000
      7 C7          2.5798   -4.7765   -1.3563 C.3       1 <0>         0.0000
      8 C8          1.0336   -2.8618   -1.8044 C.3       1 <0>         0.0000
      9 C9         -0.8899   -3.3247    2.1744 C.3       1 <0>         0.0000
     10 C10         6.4405   -2.1272    2.9267 C.3       1 <0>         0.0000
     11 C11         7.1342   -3.0688    0.6654 C.3       1 <0>         0.0000
     12 C12         5.9953   -2.9363    1.6910 C.3       1 <0>         0.0000
     13 C13         2.4245   -2.8999    0.3599 C.3       1 <0>         0.0000
     14 C14         5.3645   -1.9750    4.0244 C.3       1 <0>         0.0000
     15 C15         2.3718   -3.2623   -1.1540 C.3       1 <0>         0.0000
     16 N1          0.2223   -2.8565    1.3827 N.am      1 <0>         0.0000
     17 N2          3.6959   -3.2182    0.9688 N.am      1 <0>         0.0000
     18 N3          7.0083   -4.2255   -0.1801 N.am      1 <0>         0.0000
     19 O1          6.9129   -3.9446   -1.5290 O.3       1 <0>         0.0000
     20 O2          7.0446   -5.9802    1.3404 O.2       1 <0>         0.0000
     21 O3          4.7482   -1.1914    0.5542 O.2       1 <0>         0.0000
     22 O4          1.5569   -4.7218    1.7089 O.2       1 <0>         0.0000
     23 H1          6.8694   -6.2440   -0.6570 H         1 <0>         0.0000
     24 H2          5.7423   -3.8772    5.0075 H         1 <0>         0.0000
     25 H3          4.4501   -3.9417    3.7978 H         1 <0>         0.0000
     26 H4          4.1642   -3.1925    5.3800 H         1 <0>         0.0000
     27 H5          6.7922   -1.5734    5.6261 H         1 <0>         0.0000
     28 H6          6.2016   -0.1209    4.7985 H         1 <0>         0.0000
     29 H7          5.1564   -0.9697    5.9440 H         1 <0>         0.0000
     30 H8          3.4182   -1.4447   -1.7906 H         1 <0>         0.0000
     31 H9          3.5120   -2.7653   -2.9677 H         1 <0>         0.0000
     32 H10         4.4918   -2.8203   -1.5020 H         1 <0>         0.0000
     33 H11         1.7979   -5.3538   -0.8491 H         1 <0>         0.0000
     34 H12         3.5395   -5.1121   -0.9494 H         1 <0>         0.0000
     35 H13         2.5489   -5.0416   -2.4191 H         1 <0>         0.0000
     36 H14         0.1926   -3.3589   -1.3070 H         1 <0>         0.0000
     37 H15         0.9978   -3.1431   -2.8622 H         1 <0>         0.0000
     38 H16         0.8573   -1.7835   -1.7352 H         1 <0>         0.0000
     39 H17        -1.5882   -3.8849    1.5471 H         1 <0>         0.0000
     40 H18        -1.4189   -2.4783    2.6208 H         1 <0>         0.0000
     41 H19        -0.5348   -3.9781    2.9759 H         1 <0>         0.0000
     42 H20         7.3251   -2.6069    3.3666 H         1 <0>         0.0000
     43 H21         6.7588   -1.1249    2.6110 H         1 <0>         0.0000
     44 H22         7.1645   -2.1910    0.0112 H         1 <0>         0.0000
     45 H23         8.1063   -3.1455    1.1636 H         1 <0>         0.0000
     46 H24         5.7385   -3.9535    2.0094 H         1 <0>         0.0000
     47 H25         2.3043   -1.8161    0.4837 H         1 <0>         0.0000
     48 H26         4.4913   -1.4577    3.6101 H         1 <0>         0.0000
     49 H27         0.1595   -1.9470    0.9352 H         1 <0>         0.0000
     50 H28         3.8157   -4.1378    1.3829 H         1 <0>         0.0000
@<TRIPOS>BOND
     1    1   18 am
     2    1   20 2
     3    2   12 1
     4    2   17 am
     5    2   21 2
     6    3   13 1
     7    3   16 am
     8    3   22 2
     9    4   14 1
    10    5   14 1
    11    6   15 1
    12    7   15 1
    13    8   15 1
    14    9   16 1
    15   10   12 1
    16   10   14 1
    17   11   12 1
    18   11   18 1
    19   13   15 1
    20   13   17 1
    21   18   19 1
    22    1   23 1
    23    4   24 1
    24    4   25 1
    25    4   26 1
    26    5   27 1
    27    5   28 1
    28    5   29 1
    29    6   30 1
    30    6   31 1
    31    6   32 1
    32    7   33 1
    33    7   34 1
    34    7   35 1
    35    8   36 1
    36    8   37 1
    37    8   38 1
    38    9   39 1
    39    9   40 1
    40    9   41 1
    41   10   42 1
    42   10   43 1
    43   11   44 1
    44   11   45 1
    45   12   46 1
    46   13   47 1
    47   14   48 1
    48   16   49 1
    49   17   50 1
@<TRIPOS>MOLECULE
LIGAND
   50    49     0     0     0
SMALL
NO_CHARGES

@<TRIPOS>ATOM
      1 C1          8.7185   -5.1949    0.9438 C.2       1 <0>         0.0000
      2 C2          4.7609   -2.3304    1.0158 C.2       1 <0>         0.0000
      3 C3          1.6238   -2.1763    1.4428 C.2       1 <0>         0.0000
      4 C4          7.0285   -1.4411    4.2202 C.3       1 <0>         0.0000
      5 C5          8.3048    0.0740    2.6945 C.3       1 <0>         0.0000
      6 C6          2.6382   -4.8237   -1.2732 C.3       1 <0>         0.0000
      7 C7          1.4139   -5.1834    0.8654 C.3       1 <0>         0.0000
      8 C8          0.3871   -3.7862   -0.9377 C.3       1 <0>         0.0000
      9 C9          0.0532   -0.2939    1.7895 C.3       1 <0>         0.0000
     10 C10         7.1850   -1.9548    1.7203 C.3       1 <0>         0.0000
     11 C11         6.3716   -4.2554    0.9948 C.3       1 <0>         0.0000
     12 C12         5.9953   -2.9363    1.6910 C.3       1 <0>         0.0000
     13 C13         2.4245   -2.8999    0.3599 C.3       1 <0>         0.0000
     14 C14         7.0962   -0.8603    2.8067 C.3       1 <0>         0.0000
     15 C15         1.7114   -4.1488   -0.2382 C.3       1 <0>         0.0000
     16 N1          0.8675   -1.1285    0.9389 N.am      1 <0>         0.0000
     17 N2          3.6959   -3.2182    0.9688 N.am      1 <0>         0.0000
     18 N3          7.5302   -4.8900    1.5637 N.am      1 <0>         0.0000
     19 O1          7.4064   -5.2237    2.8983 O.3       1 <0>         0.0000
     20 O2          9.0034   -4.9733   -0.2294 O.2       1 <0>         0.0000
     21 O3          4.7482   -1.1914    0.5542 O.2       1 <0>         0.0000
     22 O4          1.6741   -2.4892    2.6314 O.2       1 <0>         0.0000
     23 H1          9.4507   -5.6841    1.6104 H         1 <0>         0.0000
     24 H2          7.9109   -2.0554    4.4301 H         1 <0>         0.0000
     25 H3          6.1416   -2.0705    4.3492 H         1 <0>         0.0000
     26 H4          7.0010   -0.6512    4.9764 H         1 <0>         0.0000
     27 H5          9.2434   -0.4691    2.8487 H         1 <0>         0.0000
     28 H6          8.3428    0.5443    1.7062 H         1 <0>         0.0000
     29 H7          8.2495    0.8738    3.4405 H         1 <0>         0.0000
     30 H8          2.8872   -4.1345   -2.0879 H         1 <0>         0.0000
     31 H9          2.1738   -5.7124   -1.7140 H         1 <0>         0.0000
     32 H10         3.5794   -5.1449   -0.8119 H         1 <0>         0.0000
     33 H11         0.7565   -4.7621    1.6349 H         1 <0>         0.0000
     34 H12         2.3282   -5.5113    1.3711 H         1 <0>         0.0000
     35 H13         0.9158   -6.0685    0.4541 H         1 <0>         0.0000
     36 H14        -0.3050   -3.3025   -0.2384 H         1 <0>         0.0000
     37 H15        -0.1179   -4.6740   -1.3329 H         1 <0>         0.0000
     38 H16         0.5457   -3.0900   -1.7676 H         1 <0>         0.0000
     39 H17        -0.9522   -0.7139    1.8767 H         1 <0>         0.0000
     40 H18        -0.0213    0.7135    1.3710 H         1 <0>         0.0000
     41 H19         0.4945   -0.2269    2.7876 H         1 <0>         0.0000
     42 H20         8.1124   -2.5237    1.8705 H         1 <0>         0.0000
     43 H21         7.2788   -1.4660    0.7417 H         1 <0>         0.0000
     44 H22         5.5455   -4.9716    1.0590 H         1 <0>         0.0000
     45 H23         6.5888   -4.0932   -0.0661 H         1 <0>         0.0000
     46 H24         5.7229   -3.1911    2.7220 H         1 <0>         0.0000
     47 H25         2.6549   -2.1876   -0.4426 H         1 <0>         0.0000
     48 H26         6.1964   -0.2560    2.6429 H         1 <0>         0.0000
     49 H27         0.8872   -0.9429   -0.0594 H         1 <0>         0.0000
     50 H28         3.8157   -4.1378    1.3829 H         1 <0>         0.0000
@<TRIPOS>BOND
     1    1   18 am
     2    1   20 2
     3    2   12 1
     4    2   17 am
     5    2   21 2
     6    3   13 1
     7    3   16 am
     8    3   22 2
     9    4   14 1
    10    5   14 1
    11    6   15 1
    12    7   15 1
    13    8   15 1
    14    9   16 1
    15   10   12 1
    16   10   14 1
    17   11   12 1
    18   11   18 1
    19   13   15 1
    20   13   17 1
    21   18   19 1
    22    1   23 1
    23    4   24 1
    24    4   25 1
    25    4   26 1
    26    5   27 1
    27    5   28 1
    28    5   29 1
    29    6   30 1
    30    6   31 1
    31    6   32 1
    32    7   33 1
    33    7   34 1
    34    7   35 1
    35    8   36 1
    36    8   37 1
    37    8   38 1
    38    9   39 1
    39    9   40 1
    40    9   41 1
    41   10   42 1
    42   10   43 1
    43   11   44 1
    44   11   45 1
    45   12   46 1
    46   13   47 1
    47   14   48 1
    48   16   49 1
    49   17   50 1
@<TRIPOS>MOLECULE
LIGAND
   50    49     0     0     0
SMALL
NO_CHARGES

@<TRIPOS>ATOM
      1 C1          8.0539   -3.2639    4.0726 C.2       1 <0>         0.0000
      2 C2          4.7609   -2.3304    1.0158 C.2       1 <0>         0.0000
      3 C3          1.6238   -2.1763    1.4428 C.2       1 <0>         0.0000
      4 C4          7.9668   -2.9805   -0.7195 C.3       1 <0>         0.0000
      5 C5          7.2752   -5.3485   -1.1277 C.3       1 <0>         0.0000
      6 C6          2.6382   -4.8237   -1.2732 C.3       1 <0>         0.0000
      7 C7          1.4139   -5.1834    0.8654 C.3       1 <0>         0.0000
      8 C8          0.3871   -3.7862   -0.9377 C.3       1 <0>         0.0000
      9 C9          0.0532   -0.2939    1.7895 C.3       1 <0>         0.0000
     10 C10         6.4903   -4.2069    0.9698 C.3       1 <0>         0.0000
     11 C11         5.6912   -3.2135    3.1734 C.3       1 <0>         0.0000
     12 C12         5.9953   -2.9363    1.6910 C.3       1 <0>         0.0000
     13 C13         2.4245   -2.8999    0.3599 C.3       1 <0>         0.0000
     14 C14         6.8518   -4.0083   -0.5189 C.3       1 <0>         0.0000
     15 C15         1.7114   -4.1488   -0.2382 C.3       1 <0>         0.0000
     16 N1          0.8675   -1.1285    0.9389 N.am      1 <0>         0.0000
     17 N2          3.6959   -3.2182    0.9688 N.am      1 <0>         0.0000
     18 N3          6.7994   -3.7930    3.8839 N.am      1 <0>         0.0000
     19 O1          6.5444   -5.0339    4.4343 O.3       1 <0>         0.0000
     20 O2          8.9783   -3.7882    4.6866 O.2       1 <0>         0.0000
     21 O3          4.7482   -1.1914    0.5542 O.2       1 <0>         0.0000
     22 O4          1.6741   -2.4892    2.6314 O.2       1 <0>         0.0000
     23 H1          8.1885   -2.2717    3.6067 H         1 <0>         0.0000
     24 H2          8.8753   -3.2848   -0.1883 H         1 <0>         0.0000
     25 H3          7.6713   -1.9951   -0.3441 H         1 <0>         0.0000
     26 H4          8.2323   -2.8793   -1.7758 H         1 <0>         0.0000
     27 H5          8.1599   -5.7527   -0.6240 H         1 <0>         0.0000
     28 H6          6.4698   -6.0859   -1.0440 H         1 <0>         0.0000
     29 H7          7.5125   -5.2358   -2.1909 H         1 <0>         0.0000
     30 H8          2.8872   -4.1345   -2.0879 H         1 <0>         0.0000
     31 H9          2.1738   -5.7124   -1.7140 H         1 <0>         0.0000
     32 H10         3.5794   -5.1449   -0.8119 H         1 <0>         0.0000
     33 H11         0.7565   -4.7621    1.6349 H         1 <0>         0.0000
     34 H12         2.3282   -5.5113    1.3711 H         1 <0>         0.0000
     35 H13         0.9158   -6.0685    0.4541 H         1 <0>         0.0000
     36 H14        -0.3050   -3.3025   -0.2384 H         1 <0>         0.0000
     37 H15        -0.1179   -4.6740   -1.3329 H         1 <0>         0.0000
     38 H16         0.5457   -3.0900   -1.7676 H         1 <0>         0.0000
     39 H17        -0.9522   -0.7139    1.8767 H         1 <0>         0.0000
     40 H18        -0.0213    0.7135    1.3710 H         1 <0>         0.0000
     41 H19         0.4945   -0.2269    2.7876 H         1 <0>         0.0000
     42 H20         7.3727   -4.5944    1.4964 H         1 <0>         0.0000
     43 H21         5.7222   -4.9884    1.0394 H         1 <0>         0.0000
     44 H22         5.4249   -2.2852    3.6898 H         1 <0>         0.0000
     45 H23         4.8500   -3.9063    3.2803 H         1 <0>         0.0000
     46 H24         6.7931   -2.1847    1.6686 H         1 <0>         0.0000
     47 H25         2.6549   -2.1876   -0.4426 H         1 <0>         0.0000
     48 H26         5.9671   -3.6628   -1.0661 H         1 <0>         0.0000
     49 H27         0.8872   -0.9429   -0.0594 H         1 <0>         0.0000
     50 H28         3.8157   -4.1378    1.3829 H         1 <0>         0.0000
@<TRIPOS>BOND
     1    1   18 am
     2    1   20 2
     3    2   12 1
     4    2   17 am
     5    2   21 2
     6    3   13 1
     7    3   16 am
     8    3   22 2
     9    4   14 1
    10    5   14 1
    11    6   15 1
    12    7   15 1
    13    8   15 1
    14    9   16 1
    15   10   12 1
    16   10   14 1
    17   11   12 1
    18   11   18 1
    19   13   15 1
    20   13   17 1
    21   18   19 1
    22    1   23 1
    23    4   24 1
    24    4   25 1
    25    4   26 1
    26    5   27 1
    27    5   28 1
    28    5   29 1
    29    6   30 1
    30    6   31 1
    31    6   32 1
    32    7   33 1
    33    7   34 1
    34    7   35 1
    35    8   36 1
    36    8   37 1
    37    8   38 1
    38    9   39 1
    39    9   40 1
    40    9   41 1
    41   10   42 1
    42   10   43 1
    43   11   44 1
    44   11   45 1
    45   12   46 1
    46   13   47 1
    47   14   48 1
    48   16   49 1
    49   17   50 1
@<TRIPOS>MOLECULE
LIGAND
   50    49     0     0     0
SMALL
NO_CHARGES

@<TRIPOS>ATOM
      1 C1          9.2881   -3.7695    1.7893 C.2       1 <0>         0.0000
      2 C2          4.7609   -2.3304    1.0158 C.2       1 <0>         0.0000
      3 C3          1.6238   -2.1763    1.4428 C.2       1 <0>         0.0000
      4 C4          4.8998   -3.3220    4.5808 C.3       1 <0>         0.0000
      5 C5          5.9126   -1.1117    5.1647 C.3       1 <0>         0.0000
      6 C6          2.6382   -4.8237   -1.2732 C.3       1 <0>         0.0000
      7 C7          1.4139   -5.1834    0.8654 C.3       1 <0>         0.0000
      8 C8          0.3871   -3.7862   -0.9377 C.3       1 <0>         0.0000
      9 C9          1.1427   -2.2044    3.8715 C.3       1 <0>         0.0000
     10 C10         6.4405   -2.1272    2.9267 C.3       1 <0>         0.0000
     11 C11         7.1342   -3.0688    0.6654 C.3       1 <0>         0.0000
     12 C12         5.9953   -2.9363    1.6910 C.3       1 <0>         0.0000
     13 C13         2.4245   -2.8999    0.3599 C.3       1 <0>         0.0000
     14 C14         5.3645   -1.9750    4.0244 C.3       1 <0>         0.0000
     15 C15         1.7114   -4.1488   -0.2382 C.3       1 <0>         0.0000
     16 N1          1.8198   -2.7177    2.7048 N.am      1 <0>         0.0000
     17 N2          3.6959   -3.2182    0.9688 N.am      1 <0>         0.0000
     18 N3          8.1489   -4.0093    1.0586 N.am      1 <0>         0.0000
     19 O1          7.9264   -5.3055    0.6367 O.3       1 <0>         0.0000
     20 O2          9.6450   -2.6864    2.2434 O.2       1 <0>         0.0000
     21 O3          4.7482   -1.1914    0.5542 O.2       1 <0>         0.0000
     22 O4          0.8744   -1.2316    1.1999 O.2       1 <0>         0.0000
     23 H1          9.9041   -4.6711    1.9543 H         1 <0>         0.0000
     24 H2          5.7423   -3.8772    5.0075 H         1 <0>         0.0000
     25 H3          4.4501   -3.9417    3.7978 H         1 <0>         0.0000
     26 H4          4.1642   -3.1925    5.3800 H         1 <0>         0.0000
     27 H5          6.7922   -1.5734    5.6261 H         1 <0>         0.0000
     28 H6          6.2016   -0.1209    4.7985 H         1 <0>         0.0000
     29 H7          5.1564   -0.9697    5.9440 H         1 <0>         0.0000
     30 H8          2.8872   -4.1345   -2.0879 H         1 <0>         0.0000
     31 H9          2.1738   -5.7124   -1.7140 H         1 <0>         0.0000
     32 H10         3.5794   -5.1449   -0.8119 H         1 <0>         0.0000
     33 H11         0.7565   -4.7621    1.6349 H         1 <0>         0.0000
     34 H12         2.3282   -5.5113    1.3711 H         1 <0>         0.0000
     35 H13         0.9158   -6.0685    0.4541 H         1 <0>         0.0000
     36 H14        -0.3050   -3.3025   -0.2384 H         1 <0>         0.0000
     37 H15        -0.1179   -4.6740   -1.3329 H         1 <0>         0.0000
     38 H16         0.5457   -3.0900   -1.7676 H         1 <0>         0.0000
     39 H17         1.7401   -1.4157    4.3360 H         1 <0>         0.0000
     40 H18         0.9874   -3.0042    4.6007 H         1 <0>         0.0000
     41 H19         0.1698   -1.7909    3.5925 H         1 <0>         0.0000
     42 H20         7.3251   -2.6069    3.3666 H         1 <0>         0.0000
     43 H21         6.7588   -1.1249    2.6110 H         1 <0>         0.0000
     44 H22         6.7419   -3.4007   -0.3017 H         1 <0>         0.0000
     45 H23         7.6368   -2.1087    0.5083 H         1 <0>         0.0000
     46 H24         5.7385   -3.9535    2.0094 H         1 <0>         0.0000
     47 H25         2.6549   -2.1876   -0.4426 H         1 <0>         0.0000
     48 H26         4.4913   -1.4577    3.6101 H         1 <0>         0.0000
     49 H27         2.4595   -3.4993    2.8111 H         1 <0>         0.0000
     50 H28         3.8157   -4.1378    1.3829 H         1 <0>         0.0000
@<TRIPOS>BOND
     1    1   18 am
     2    1   20 2
     3    2   12 1
     4    2   17 am
     5    2   21 2
     6    3   13 1
     7    3   16 am
     8    3   22 2
     9    4   14 1
    10    5   14 1
    11    6   15 1
    12    7   15 1
    13    8   15 1
    14    9   16 1
    15   10   12 1
    16   10   14 1
    17   11   12 1
    18   11   18 1
    19   13   15 1
    20   13   17 1
    21   18   19 1
    22    1   23 1
    23    4   24 1
    24    4   25 1
    25    4   26 1
    26    5   27 1
    27    5   28 1
    28    5   29 1
    29    6   30 1
    30    6   31 1
    31    6   32 1
    32    7   33 1
    33    7   34 1
    34    7   35 1
    35    8   36 1
    36    8   37 1
    37    8   38 1
    38    9   39 1
    39    9   40 1
    40    9   41 1
    41   10   42 1
    42   10   43 1
    43   11   44 1
    44   11   45 1
    45   12   46 1
    46   13   47 1
    47   14   48 1
    48   16   49 1
    49   17   50 1
@<TRIPOS>MOLECULE
LIGAND
   50    49     0     0     0
SMALL
NO_CHARGES

@<TRIPOS>ATOM
      1 C1          7.5069   -5.4885    0.0335 C.2       1 <0>         0.0000
      2 C2          4.7609   -2.3304    1.0158 C.2       1 <0>         0.0000
      3 C3          1.6238   -2.1763    1.4428 C.2       1 <0>         0.0000
      4 C4          4.8998   -3.3220    4.5808 C.3       1 <0>         0.0000
      5 C5          5.9126   -1.1117    5.1647 C.3       1 <0>         0.0000
      6 C6          2.6382   -4.8237   -1.2732 C.3       1 <0>         0.0000
      7 C7          1.4139   -5.1834    0.8654 C.3       1 <0>         0.0000
      8 C8          0.3871   -3.7862   -0.9377 C.3       1 <0>         0.0000
      9 C9          1.1427   -2.2044    3.8715 C.3       1 <0>         0.0000
     10 C10         6.4405   -2.1272    2.9267 C.3       1 <0>         0.0000
     11 C11         7.1342   -3.0688    0.6654 C.3       1 <0>         0.0000
     12 C12         5.9953   -2.9363    1.6910 C.3       1 <0>         0.0000
     13 C13         2.4245   -2.8999    0.3599 C.3       1 <0>         0.0000
     14 C14         5.3645   -1.9750    4.0244 C.3       1 <0>         0.0000
     15 C15         1.7114   -4.1488   -0.2382 C.3       1 <0>         0.0000
     16 N1          1.8198   -2.7177    2.7048 N.am      1 <0>         0.0000
     17 N2          3.6959   -3.2182    0.9688 N.am      1 <0>         0.0000
     18 N3          7.0083   -4.2255   -0.1801 N.am      1 <0>         0.0000
     19 O1          6.2940   -4.0132   -1.3430 O.3       1 <0>         0.0000
     20 O2          8.1609   -5.8564    1.0048 O.2       1 <0>         0.0000
     21 O3          4.7482   -1.1914    0.5542 O.2       1 <0>         0.0000
     22 O4          0.8744   -1.2316    1.1999 O.2       1 <0>         0.0000
     23 H1          7.2671   -6.1999   -0.7765 H         1 <0>         0.0000
     24 H2          5.7423   -3.8772    5.0075 H         1 <0>         0.0000
     25 H3          4.4501   -3.9417    3.7978 H         1 <0>         0.0000
     26 H4          4.1642   -3.1925    5.3800 H         1 <0>         0.0000
     27 H5          6.7922   -1.5734    5.6261 H         1 <0>         0.0000
     28 H6          6.2016   -0.1209    4.7985 H         1 <0>         0.0000
     29 H7          5.1564   -0.9697    5.9440 H         1 <0>         0.0000
     30 H8          2.8872   -4.1345   -2.0879 H         1 <0>         0.0000
     31 H9          2.1738   -5.7124   -1.7140 H         1 <0>         0.0000
     32 H10         3.5794   -5.1449   -0.8119 H         1 <0>         0.0000
     33 H11         0.7565   -4.7621    1.6349 H         1 <0>         0.0000
     34 H12         2.3282   -5.5113    1.3711 H         1 <0>         0.0000
     35 H13         0.9158   -6.0685    0.4541 H         1 <0>         0.0000
     36 H14        -0.3050   -3.3025   -0.2384 H         1 <0>         0.0000
     37 H15        -0.1179   -4.6740   -1.3329 H         1 <0>         0.0000
     38 H16         0.5457   -3.0900   -1.7676 H         1 <0>         0.0000
     39 H17         1.7401   -1.4157    4.3360 H         1 <0>         0.0000
     40 H18         0.9874   -3.0042    4.6007 H         1 <0>         0.0000
     41 H19         0.1698   -1.7909    3.5925 H         1 <0>         0.0000
     42 H20         7.3251   -2.6069    3.3666 H         1 <0>         0.0000
     43 H21         6.7588   -1.1249    2.6110 H         1 <0>         0.0000
     44 H22         7.1645   -2.1910    0.0112 H         1 <0>         0.0000
     45 H23         8.1063   -3.1455    1.1636 H         1 <0>         0.0000
     46 H24         5.7385   -3.9535    2.0094 H         1 <0>         0.0000
     47 H25         2.6549   -2.1876   -0.4426 H         1 <0>         0.0000
     48 H26         4.4913   -1.4577    3.6101 H         1 <0>         0.0000
     49 H27         2.4595   -3.4993    2.8111 H         1 <0>         0.0000
     50 H28         3.8157   -4.1378    1.3829 H         1 <0>         0.0000
@<TRIPOS>BOND
     1    1   18 am
     2    1   20 2
     3    2   12 1
     4    2   17 am
     5    2   21 2
     6    3   13 1
     7    3   16 am
     8    3   22 2
     9    4   14 1
    10    5   14 1
    11    6   15 1
    12    7   15 1
    13    8   15 1
    14    9   16 1
    15   10   12 1
    16   10   14 1
    17   11   12 1
    18   11   18 1
    19   13   15 1
    20   13   17 1
    21   18   19 1
    22    1   23 1
    23    4   24 1
    24    4   25 1
    25    4   26 1
    26    5   27 1
    27    5   28 1
    28    5   29 1
    29    6   30 1
    30    6   31 1
    31    6   32 1
    32    7   33 1
    33    7   34 1
    34    7   35 1
    35    8   36 1
    36    8   37 1
    37    8   38 1
    38    9   39 1
    39    9   40 1
    40    9   41 1
    41   10   42 1
    42   10   43 1
    43   11   44 1
    44   11   45 1
    45   12   46 1
    46   13   47 1
    47   14   48 1
    48   16   49 1
    49   17   50 1
@<TRIPOS>MOLECULE
LIGAND
   50    49     0     0     0
SMALL
NO_CHARGES

@<TRIPOS>ATOM
      1 C1          9.4872   -3.7737    1.2654 C.2       1 <0>         0.0000
      2 C2          4.7609   -2.3304    1.0158 C.2       1 <0>         0.0000
      3 C3          1.4114   -2.9063    1.5049 C.2       1 <0>         0.0000
      4 C4          4.8998   -3.3220    4.5808 C.3       1 <0>         0.0000
      5 C5          5.9126   -1.1117    5.1647 C.3       1 <0>         0.0000
      6 C6          3.1857   -3.8003   -1.8813 C.3       1 <0>         0.0000
      7 C7          1.9543   -5.3076   -0.3278 C.3       1 <0>         0.0000
      8 C8          0.7370   -3.4626   -1.4991 C.3       1 <0>         0.0000
      9 C9         -0.5781   -1.7107    2.3670 C.3       1 <0>         0.0000
     10 C10         6.4405   -2.1272    2.9267 C.3       1 <0>         0.0000
     11 C11         7.1342   -3.0688    0.6654 C.3       1 <0>         0.0000
     12 C12         5.9953   -2.9363    1.6910 C.3       1 <0>         0.0000
     13 C13         2.4245   -2.8999    0.3599 C.3       1 <0>         0.0000
     14 C14         5.3645   -1.9750    4.0244 C.3       1 <0>         0.0000
     15 C15         2.0646   -3.8508   -0.8201 C.3       1 <0>         0.0000
     16 N1          0.4604   -1.9038    1.3835 N.am      1 <0>         0.0000
     17 N2          3.6959   -3.2182    0.9688 N.am      1 <0>         0.0000
     18 N3          8.1489   -4.0093    1.0586 N.am      1 <0>         0.0000
     19 O1          7.6955   -5.3007    1.2443 O.3       1 <0>         0.0000
     20 O2         10.3271   -4.6032    1.6016 O.2       1 <0>         0.0000
     21 O3          4.7482   -1.1914    0.5542 O.2       1 <0>         0.0000
     22 O4          1.4623   -3.7076    2.4368 O.2       1 <0>         0.0000
     23 H1          9.7805   -2.7220    1.0994 H         1 <0>         0.0000
     24 H2          5.7423   -3.8772    5.0075 H         1 <0>         0.0000
     25 H3          4.4501   -3.9417    3.7978 H         1 <0>         0.0000
     26 H4          4.1642   -3.1925    5.3800 H         1 <0>         0.0000
     27 H5          6.7922   -1.5734    5.6261 H         1 <0>         0.0000
     28 H6          6.2016   -0.1209    4.7985 H         1 <0>         0.0000
     29 H7          5.1564   -0.9697    5.9440 H         1 <0>         0.0000
     30 H8          3.3133   -2.7845   -2.2720 H         1 <0>         0.0000
     31 H9          2.9723   -4.4622   -2.7277 H         1 <0>         0.0000
     32 H10         4.1465   -4.1154   -1.4578 H         1 <0>         0.0000
     33 H11         1.1705   -5.4095    0.4319 H         1 <0>         0.0000
     34 H12         2.8879   -5.6535    0.1281 H         1 <0>         0.0000
     35 H13         1.7055   -5.9859   -1.1517 H         1 <0>         0.0000
     36 H14        -0.0909   -3.4848   -0.7807 H         1 <0>         0.0000
     37 H15         0.4812   -4.1517   -2.3109 H         1 <0>         0.0000
     38 H16         0.7762   -2.4505   -1.9146 H         1 <0>         0.0000
     39 H17        -1.4589   -2.3023    2.1044 H         1 <0>         0.0000
     40 H18        -0.8634   -0.6562    2.4133 H         1 <0>         0.0000
     41 H19        -0.2264   -2.0222    3.3542 H         1 <0>         0.0000
     42 H20         7.3251   -2.6069    3.3666 H         1 <0>         0.0000
     43 H21         6.7588   -1.1249    2.6110 H         1 <0>         0.0000
     44 H22         6.7419   -3.4007   -0.3017 H         1 <0>         0.0000
     45 H23         7.6368   -2.1087    0.5083 H         1 <0>         0.0000
     46 H24         5.7385   -3.9535    2.0094 H         1 <0>         0.0000
     47 H25         2.5279   -1.8729   -0.0129 H         1 <0>         0.0000
     48 H26         4.4913   -1.4577    3.6101 H         1 <0>         0.0000
     49 H27         0.4960   -1.2867    0.5777 H         1 <0>         0.0000
     50 H28         3.8157   -4.1378    1.3829 H         1 <0>         0.0000
@<TRIPOS>BOND
     1    1   18 am
     2    1   20 2
     3    2   12 1
     4    2   17 am
     5    2   21 2
     6    3   13 1
     7    3   16 am
     8    3   22 2
     9    4   14 1
    10    5   14 1
    11    6   15 1
    12    7   15 1
    13    8   15 1
    14    9   16 1
    15   10   12 1
    16   10   14 1
    17   11   12 1
    18   11   18 1
    19   13   15 1
    20   13   17 1
    21   18   19 1
    22    1   23 1
    23    4   24 1
    24    4   25 1
    25    4   26 1
    26    5   27 1
    27    5   28 1
    28    5   29 1
    29    6   30 1
    30    6   31 1
    31    6   32 1
    32    7   33 1
    33    7   34 1
    34    7   35 1
    35    8   36 1
    36    8   37 1
    37    8   38 1
    38    9   39 1
    39    9   40 1
    40    9   41 1
    41   10   42 1
    42   10   43 1
    43   11   44 1
    44   11   45 1
    45   12   46 1
    46   13   47 1
    47   14   48 1
    48   16   49 1
    49   17   50 1
@<TRIPOS>MOLECULE
LIGAND
   50    49     0     0     0
SMALL
NO_CHARGES

@<TRIPOS>ATOM
      1 C1          7.2744   -1.2204   -1.2237 C.2       1 <0>         0.0000
      2 C2          4.7609   -2.3304    1.0158 C.2       1 <0>         0.0000
      3 C3          1.6238   -2.1763    1.4428 C.2       1 <0>         0.0000
      4 C4          5.4286   -5.0551    3.9022 C.3       1 <0>         0.0000
      5 C5          5.1681   -3.1669    5.5205 C.3       1 <0>         0.0000
      6 C6          2.6382   -4.8237   -1.2732 C.3       1 <0>         0.0000
      7 C7          1.4139   -5.1834    0.8654 C.3       1 <0>         0.0000
      8 C8          0.3871   -3.7862   -0.9377 C.3       1 <0>         0.0000
      9 C9          0.0532   -0.2939    1.7895 C.3       1 <0>         0.0000
     10 C10         6.0212   -2.6662    3.2096 C.3       1 <0>         0.0000
     11 C11         7.2695   -2.4142    1.0053 C.3       1 <0>         0.0000
     12 C12         5.9953   -2.9363    1.6910 C.3       1 <0>         0.0000
     13 C13         2.4245   -2.8999    0.3599 C.3       1 <0>         0.0000
     14 C14         5.0884   -3.5706    4.0452 C.3       1 <0>         0.0000
     15 C15         1.7114   -4.1488   -0.2382 C.3       1 <0>         0.0000
     16 N1          0.8675   -1.1285    0.9389 N.am      1 <0>         0.0000
     17 N2          3.6959   -3.2182    0.9688 N.am      1 <0>         0.0000
     18 N3          7.1543   -2.3334   -0.4262 N.am      1 <0>         0.0000
     19 O1          6.8903   -3.5366   -1.0510 O.3       1 <0>         0.0000
     20 O2          7.5059   -0.0764   -0.8437 O.2       1 <0>         0.0000
     21 O3          4.7482   -1.1914    0.5542 O.2       1 <0>         0.0000
     22 O4          1.6741   -2.4892    2.6314 O.2       1 <0>         0.0000
     23 H1          7.1409   -1.4322   -2.2993 H         1 <0>         0.0000
     24 H2          6.4596   -5.2491    4.2175 H         1 <0>         0.0000
     25 H3          5.3256   -5.3883    2.8641 H         1 <0>         0.0000
     26 H4          4.7804   -5.6761    4.5273 H         1 <0>         0.0000
     27 H5          6.1838   -3.2884    5.9121 H         1 <0>         0.0000
     28 H6          4.8754   -2.1200    5.6540 H         1 <0>         0.0000
     29 H7          4.4947   -3.7797    6.1290 H         1 <0>         0.0000
     30 H8          2.8872   -4.1345   -2.0879 H         1 <0>         0.0000
     31 H9          2.1738   -5.7124   -1.7140 H         1 <0>         0.0000
     32 H10         3.5794   -5.1449   -0.8119 H         1 <0>         0.0000
     33 H11         0.7565   -4.7621    1.6349 H         1 <0>         0.0000
     34 H12         2.3282   -5.5113    1.3711 H         1 <0>         0.0000
     35 H13         0.9158   -6.0685    0.4541 H         1 <0>         0.0000
     36 H14        -0.3050   -3.3025   -0.2384 H         1 <0>         0.0000
     37 H15        -0.1179   -4.6740   -1.3329 H         1 <0>         0.0000
     38 H16         0.5457   -3.0900   -1.7676 H         1 <0>         0.0000
     39 H17        -0.9522   -0.7139    1.8767 H         1 <0>         0.0000
     40 H18        -0.0213    0.7135    1.3710 H         1 <0>         0.0000
     41 H19         0.4945   -0.2269    2.7876 H         1 <0>         0.0000
     42 H20         7.0493   -2.7891    3.5757 H         1 <0>         0.0000
     43 H21         5.7503   -1.6191    3.3985 H         1 <0>         0.0000
     44 H22         7.5158   -1.4105    1.3677 H         1 <0>         0.0000
     45 H23         8.1255   -3.0633    1.2175 H         1 <0>         0.0000
     46 H24         5.9704   -4.0198    1.5260 H         1 <0>         0.0000
     47 H25         2.6549   -2.1876   -0.4426 H         1 <0>         0.0000
     48 H26         4.0519   -3.4254    3.7195 H         1 <0>         0.0000
     49 H27         0.8872   -0.9429   -0.0594 H         1 <0>         0.0000
     50 H28         3.8157   -4.1378    1.3829 H         1 <0>         0.0000
@<TRIPOS>BOND
     1    1   18 am
     2    1   20 2
     3    2   12 1
     4    2   17 am
     5    2   21 2
     6    3   13 1
     7    3   16 am
     8    3   22 2
     9    4   14 1
    10    5   14 1
    11    6   15 1
    12    7   15 1
    13    8   15 1
    14    9   16 1
    15   10   12 1
    16   10   14 1
    17   11   12 1
    18   11   18 1
    19   13   15 1
    20   13   17 1
    21   18   19 1
    22    1   23 1
    23    4   24 1
    24    4   25 1
    25    4   26 1
    26    5   27 1
    27    5   28 1
    28    5   29 1
    29    6   30 1
    30    6   31 1
    31    6   32 1
    32    7   33 1
    33    7   34 1
    34    7   35 1
    35    8   36 1
    36    8   37 1
    37    8   38 1
    38    9   39 1
    39    9   40 1
    40    9   41 1
    41   10   42 1
    42   10   43 1
    43   11   44 1
    44   11   45 1
    45   12   46 1
    46   13   47 1
    47   14   48 1
    48   16   49 1
    49   17   50 1
@<TRIPOS>MOLECULE
LIGAND
   50    49     0     0     0
SMALL
NO_CHARGES

@<TRIPOS>ATOM
      1 C1          7.7057   -5.3322    2.8533 C.2       1 <0>         0.0000
      2 C2          4.7609   -2.3304    1.0158 C.2       1 <0>         0.0000
      3 C3          1.4114   -2.9063    1.5049 C.2       1 <0>         0.0000
      4 C4          7.0285   -1.4411    4.2202 C.3       1 <0>         0.0000
      5 C5          8.3048    0.0740    2.6945 C.3       1 <0>         0.0000
      6 C6          3.1857   -3.8003   -1.8813 C.3       1 <0>         0.0000
      7 C7          1.9543   -5.3076   -0.3278 C.3       1 <0>         0.0000
      8 C8          0.7370   -3.4626   -1.4991 C.3       1 <0>         0.0000
      9 C9         -0.5781   -1.7107    2.3670 C.3       1 <0>         0.0000
     10 C10         7.1850   -1.9548    1.7203 C.3       1 <0>         0.0000
     11 C11         6.3716   -4.2554    0.9948 C.3       1 <0>         0.0000
     12 C12         5.9953   -2.9363    1.6910 C.3       1 <0>         0.0000
     13 C13         2.4245   -2.8999    0.3599 C.3       1 <0>         0.0000
     14 C14         7.0962   -0.8603    2.8067 C.3       1 <0>         0.0000
     15 C15         2.0646   -3.8508   -0.8201 C.3       1 <0>         0.0000
     16 N1          0.4604   -1.9038    1.3835 N.am      1 <0>         0.0000
     17 N2          3.6959   -3.2182    0.9688 N.am      1 <0>         0.0000
     18 N3          7.5302   -4.8900    1.5637 N.am      1 <0>         0.0000
     19 O1          8.5809   -5.0641    0.6843 O.3       1 <0>         0.0000
     20 O2          6.8854   -5.2605    3.7635 O.2       1 <0>         0.0000
     21 O3          4.7482   -1.1914    0.5542 O.2       1 <0>         0.0000
     22 O4          1.4623   -3.7076    2.4368 O.2       1 <0>         0.0000
     23 H1          8.6962   -5.7866    3.0326 H         1 <0>         0.0000
     24 H2          7.9109   -2.0554    4.4301 H         1 <0>         0.0000
     25 H3          6.1416   -2.0705    4.3492 H         1 <0>         0.0000
     26 H4          7.0010   -0.6512    4.9764 H         1 <0>         0.0000
     27 H5          9.2434   -0.4691    2.8487 H         1 <0>         0.0000
     28 H6          8.3428    0.5443    1.7062 H         1 <0>         0.0000
     29 H7          8.2495    0.8738    3.4405 H         1 <0>         0.0000
     30 H8          3.3133   -2.7845   -2.2720 H         1 <0>         0.0000
     31 H9          2.9723   -4.4622   -2.7277 H         1 <0>         0.0000
     32 H10         4.1465   -4.1154   -1.4578 H         1 <0>         0.0000
     33 H11         1.1705   -5.4095    0.4319 H         1 <0>         0.0000
     34 H12         2.8879   -5.6535    0.1281 H         1 <0>         0.0000
     35 H13         1.7055   -5.9859   -1.1517 H         1 <0>         0.0000
     36 H14        -0.0909   -3.4848   -0.7807 H         1 <0>         0.0000
     37 H15         0.4812   -4.1517   -2.3109 H         1 <0>         0.0000
     38 H16         0.7762   -2.4505   -1.9146 H         1 <0>         0.0000
     39 H17        -1.4589   -2.3023    2.1044 H         1 <0>         0.0000
     40 H18        -0.8634   -0.6562    2.4133 H         1 <0>         0.0000
     41 H19        -0.2264   -2.0222    3.3542 H         1 <0>         0.0000
     42 H20         8.1124   -2.5237    1.8705 H         1 <0>         0.0000
     43 H21         7.2788   -1.4660    0.7417 H         1 <0>         0.0000
     44 H22         5.5455   -4.9716    1.0590 H         1 <0>         0.0000
     45 H23         6.5888   -4.0932   -0.0661 H         1 <0>         0.0000
     46 H24         5.7229   -3.1911    2.7220 H         1 <0>         0.0000
     47 H25         2.5279   -1.8729   -0.0129 H         1 <0>         0.0000
     48 H26         6.1964   -0.2560    2.6429 H         1 <0>         0.0000
     49 H27         0.4960   -1.2867    0.5777 H         1 <0>         0.0000
     50 H28         3.8157   -4.1378    1.3829 H         1 <0>         0.0000
@<TRIPOS>BOND
     1    1   18 am
     2    1   20 2
     3    2   12 1
     4    2   17 am
     5    2   21 2
     6    3   13 1
     7    3   16 am
     8    3   22 2
     9    4   14 1
    10    5   14 1
    11    6   15 1
    12    7   15 1
    13    8   15 1
    14    9   16 1
    15   10   12 1
    16   10   14 1
    17   11   12 1
    18   11   18 1
    19   13   15 1
    20   13   17 1
    21   18   19 1
    22    1   23 1
    23    4   24 1
    24    4   25 1
    25    4   26 1
    26    5   27 1
    27    5   28 1
    28    5   29 1
    29    6   30 1
    30    6   31 1
    31    6   32 1
    32    7   33 1
    33    7   34 1
    34    7   35 1
    35    8   36 1
    36    8   37 1
    37    8   38 1
    38    9   39 1
    39    9   40 1
    40    9   41 1
    41   10   42 1
    42   10   43 1
    43   11   44 1
    44   11   45 1
    45   12   46 1
    46   13   47 1
    47   14   48 1
    48   16   49 1
    49   17   50 1
@<TRIPOS>MOLECULE
LIGAND
   50    49     0     0     0
SMALL
NO_CHARGES

@<TRIPOS>ATOM
      1 C1          4.1712   -1.7701    4.5874 C.2       1 <0>         0.0000
      2 C2          4.7609   -2.3304    1.0158 C.2       1 <0>         0.0000
      3 C3          1.9548   -1.6162    1.0446 C.2       1 <0>         0.0000
      4 C4          7.9668   -2.9805   -0.7195 C.3       1 <0>         0.0000
      5 C5          7.2752   -5.3485   -1.1277 C.3       1 <0>         0.0000
      6 C6          2.0155   -5.3270   -0.2360 C.3       1 <0>         0.0000
      7 C7          1.1035   -4.4371    1.9036 C.3       1 <0>         0.0000
      8 C8          0.0778   -3.7458   -0.2707 C.3       1 <0>         0.0000
      9 C9          0.8348    0.5461    0.5966 C.3       1 <0>         0.0000
     10 C10         6.4903   -4.2069    0.9698 C.3       1 <0>         0.0000
     11 C11         5.6912   -3.2135    3.1734 C.3       1 <0>         0.0000
     12 C12         5.9953   -2.9363    1.6910 C.3       1 <0>         0.0000
     13 C13         2.4245   -2.8999    0.3599 C.3       1 <0>         0.0000
     14 C14         6.8518   -4.0083   -0.5189 C.3       1 <0>         0.0000
     15 C15         1.4067   -4.0765    0.4357 C.3       1 <0>         0.0000
     16 N1          1.3343   -0.7384    0.1680 N.am      1 <0>         0.0000
     17 N2          3.6959   -3.2182    0.9688 N.am      1 <0>         0.0000
     18 N3          5.3407   -2.0316    3.9142 N.am      1 <0>         0.0000
     19 O1          6.3174   -1.0552    3.9355 O.3       1 <0>         0.0000
     20 O2          3.2011   -2.5170    4.6749 O.2       1 <0>         0.0000
     21 O3          4.7482   -1.1914    0.5542 O.2       1 <0>         0.0000
     22 O4          2.1356   -1.3931    2.2407 O.2       1 <0>         0.0000
     23 H1          4.1565   -0.7806    5.0777 H         1 <0>         0.0000
     24 H2          8.8753   -3.2848   -0.1883 H         1 <0>         0.0000
     25 H3          7.6713   -1.9951   -0.3441 H         1 <0>         0.0000
     26 H4          8.2323   -2.8793   -1.7758 H         1 <0>         0.0000
     27 H5          8.1599   -5.7527   -0.6240 H         1 <0>         0.0000
     28 H6          6.4698   -6.0859   -1.0440 H         1 <0>         0.0000
     29 H7          7.5125   -5.2358   -2.1909 H         1 <0>         0.0000
     30 H8          2.2541   -5.1329   -1.2877 H         1 <0>         0.0000
     31 H9          1.3305   -6.1810   -0.1982 H         1 <0>         0.0000
     32 H10         2.9425   -5.6329    0.2628 H         1 <0>         0.0000
     33 H11         0.6668   -3.5850    2.4375 H         1 <0>         0.0000
     34 H12         2.0104   -4.7234    2.4466 H         1 <0>         0.0000
     35 H13         0.3913   -5.2673    1.9681 H         1 <0>         0.0000
     36 H14        -0.3923   -2.8611    0.1746 H         1 <0>         0.0000
     37 H15        -0.6390   -4.5698   -0.1902 H         1 <0>         0.0000
     38 H16         0.2276   -3.5306   -1.3336 H         1 <0>         0.0000
     39 H17        -0.2038    0.4548    0.9249 H         1 <0>         0.0000
     40 H18         0.8817    1.2638   -0.2270 H         1 <0>         0.0000
     41 H19         1.4345    0.9267    1.4277 H         1 <0>         0.0000
     42 H20         7.3727   -4.5944    1.4964 H         1 <0>         0.0000
     43 H21         5.7222   -4.9884    1.0394 H         1 <0>         0.0000
     44 H22         4.8556   -3.9151    3.2682 H         1 <0>         0.0000
     45 H23         6.5563   -3.6574    3.6769 H         1 <0>         0.0000
     46 H24         6.7931   -2.1847    1.6686 H         1 <0>         0.0000
     47 H25         2.6512   -2.6760   -0.6903 H         1 <0>         0.0000
     48 H26         5.9671   -3.6628   -1.0661 H         1 <0>         0.0000
     49 H27         1.2283   -1.0078   -0.8054 H         1 <0>         0.0000
     50 H28         3.8157   -4.1378    1.3829 H         1 <0>         0.0000
@<TRIPOS>BOND
     1    1   18 am
     2    1   20 2
     3    2   12 1
     4    2   17 am
     5    2   21 2
     6    3   13 1
     7    3   16 am
     8    3   22 2
     9    4   14 1
    10    5   14 1
    11    6   15 1
    12    7   15 1
    13    8   15 1
    14    9   16 1
    15   10   12 1
    16   10   14 1
    17   11   12 1
    18   11   18 1
    19   13   15 1
    20   13   17 1
    21   18   19 1
    22    1   23 1
    23    4   24 1
    24    4   25 1
    25    4   26 1
    26    5   27 1
    27    5   28 1
    28    5   29 1
    29    6   30 1
    30    6   31 1
    31    6   32 1
    32    7   33 1
    33    7   34 1
    34    7   35 1
    35    8   36 1
    36    8   37 1
    37    8   38 1
    38    9   39 1
    39    9   40 1
    40    9   41 1
    41   10   42 1
    42   10   43 1
    43   11   44 1
    44   11   45 1
    45   12   46 1
    46   13   47 1
    47   14   48 1
    48   16   49 1
    49   17   50 1
@<TRIPOS>MOLECULE
LIGAND
   50    49     0     0     0
SMALL
NO_CHARGES

@<TRIPOS>ATOM
      1 C1          7.8677   -2.4259    4.1911 C.2       1 <0>         0.0000
      2 C2          4.7609   -2.3304    1.0158 C.2       1 <0>         0.0000
      3 C3          1.3743   -3.6105    1.2141 C.2       1 <0>         0.0000
      4 C4          8.5547   -3.1178   -0.0742 C.3       1 <0>         0.0000
      5 C5          7.6782   -5.2829   -0.9666 C.3       1 <0>         0.0000
      6 C6          3.5112   -2.5312   -1.8976 C.3       1 <0>         0.0000
      7 C7          2.5798   -4.7765   -1.3563 C.3       1 <0>         0.0000
      8 C8          1.0336   -2.8618   -1.8044 C.3       1 <0>         0.0000
      9 C9         -0.8899   -3.3247    2.1744 C.3       1 <0>         0.0000
     10 C10         6.4903   -4.2069    0.9698 C.3       1 <0>         0.0000
     11 C11         5.6912   -3.2135    3.1734 C.3       1 <0>         0.0000
     12 C12         5.9953   -2.9363    1.6910 C.3       1 <0>         0.0000
     13 C13         2.4245   -2.8999    0.3599 C.3       1 <0>         0.0000
     14 C14         7.2936   -3.9469   -0.3237 C.3       1 <0>         0.0000
     15 C15         2.3718   -3.2623   -1.1540 C.3       1 <0>         0.0000
     16 N1          0.2223   -2.8565    1.3827 N.am      1 <0>         0.0000
     17 N2          3.6959   -3.2182    0.9688 N.am      1 <0>         0.0000
     18 N3          6.8729   -3.3510    3.9817 N.am      1 <0>         0.0000
     19 O1          6.9987   -4.5727    4.6137 O.3       1 <0>         0.0000
     20 O2          7.9211   -1.2964    3.7137 O.2       1 <0>         0.0000
     21 O3          4.7482   -1.1914    0.5542 O.2       1 <0>         0.0000
     22 O4          1.5569   -4.7218    1.7089 O.2       1 <0>         0.0000
     23 H1          8.6698   -2.7848    4.8601 H         1 <0>         0.0000
     24 H2          9.2158   -3.6219    0.6392 H         1 <0>         0.0000
     25 H3          8.3079   -2.1320    0.3339 H         1 <0>         0.0000
     26 H4          9.1275   -2.9738   -0.9949 H         1 <0>         0.0000
     27 H5          8.3104   -5.8785   -0.2992 H         1 <0>         0.0000
     28 H6          6.7859   -5.8716   -1.2045 H         1 <0>         0.0000
     29 H7          8.2280   -5.1221   -1.9000 H         1 <0>         0.0000
     30 H8          3.4182   -1.4447   -1.7906 H         1 <0>         0.0000
     31 H9          3.5120   -2.7653   -2.9677 H         1 <0>         0.0000
     32 H10         4.4918   -2.8203   -1.5020 H         1 <0>         0.0000
     33 H11         1.7979   -5.3538   -0.8491 H         1 <0>         0.0000
     34 H12         3.5395   -5.1121   -0.9494 H         1 <0>         0.0000
     35 H13         2.5489   -5.0416   -2.4191 H         1 <0>         0.0000
     36 H14         0.1926   -3.3589   -1.3070 H         1 <0>         0.0000
     37 H15         0.9978   -3.1431   -2.8622 H         1 <0>         0.0000
     38 H16         0.8573   -1.7835   -1.7352 H         1 <0>         0.0000
     39 H17        -1.5882   -3.8849    1.5471 H         1 <0>         0.0000
     40 H18        -1.4189   -2.4783    2.6208 H         1 <0>         0.0000
     41 H19        -0.5348   -3.9781    2.9759 H         1 <0>         0.0000
     42 H20         7.1160   -4.7876    1.6607 H         1 <0>         0.0000
     43 H21         5.6310   -4.8442    0.7228 H         1 <0>         0.0000
     44 H22         5.0986   -2.3982    3.6018 H         1 <0>         0.0000
     45 H23         5.1177   -4.1388    3.2917 H         1 <0>         0.0000
     46 H24         6.7931   -2.1847    1.6686 H         1 <0>         0.0000
     47 H25         2.3043   -1.8161    0.4837 H         1 <0>         0.0000
     48 H26         6.6656   -3.4052   -1.0405 H         1 <0>         0.0000
     49 H27         0.1595   -1.9470    0.9352 H         1 <0>         0.0000
     50 H28         3.8157   -4.1378    1.3829 H         1 <0>         0.0000
@<TRIPOS>BOND
     1    1   18 am
     2    1   20 2
     3    2   12 1
     4    2   17 am
     5    2   21 2
     6    3   13 1
     7    3   16 am
     8    3   22 2
     9    4   14 1
    10    5   14 1
    11    6   15 1
    12    7   15 1
    13    8   15 1
    14    9   16 1
    15   10   12 1
    16   10   14 1
    17   11   12 1
    18   11   18 1
    19   13   15 1
    20   13   17 1
    21   18   19 1
    22    1   23 1
    23    4   24 1
    24    4   25 1
    25    4   26 1
    26    5   27 1
    27    5   28 1
    28    5   29 1
    29    6   30 1
    30    6   31 1
    31    6   32 1
    32    7   33 1
    33    7   34 1
    34    7   35 1
    35    8   36 1
    36    8   37 1
    37    8   38 1
    38    9   39 1
    39    9   40 1
    40    9   41 1
    41   10   42 1
    42   10   43 1
    43   11   44 1
    44   11   45 1
    45   12   46 1
    46   13   47 1
    47   14   48 1
    48   16   49 1
    49   17   50 1
@<TRIPOS>MOLECULE
LIGAND
   50    49     0     0     0
SMALL
NO_CHARGES

@<TRIPOS>ATOM
      1 C1          8.9351   -1.3440    1.0840 C.2       1 <0>         0.0000
      2 C2          4.7609   -2.3304    1.0158 C.2       1 <0>         0.0000
      3 C3          1.6238   -2.1763    1.4428 C.2       1 <0>         0.0000
      4 C4          4.8998   -3.3220    4.5808 C.3       1 <0>         0.0000
      5 C5          5.9126   -1.1117    5.1647 C.3       1 <0>         0.0000
      6 C6          2.6382   -4.8237   -1.2732 C.3       1 <0>         0.0000
      7 C7          1.4139   -5.1834    0.8654 C.3       1 <0>         0.0000
      8 C8          0.3871   -3.7862   -0.9377 C.3       1 <0>         0.0000
      9 C9          0.0532   -0.2939    1.7895 C.3       1 <0>         0.0000
     10 C10         6.4405   -2.1272    2.9267 C.3       1 <0>         0.0000
     11 C11         7.1342   -3.0688    0.6654 C.3       1 <0>         0.0000
     12 C12         5.9953   -2.9363    1.6910 C.3       1 <0>         0.0000
     13 C13         2.4245   -2.8999    0.3599 C.3       1 <0>         0.0000
     14 C14         5.3645   -1.9750    4.0244 C.3       1 <0>         0.0000
     15 C15         1.7114   -4.1488   -0.2382 C.3       1 <0>         0.0000
     16 N1          0.8675   -1.1285    0.9389 N.am      1 <0>         0.0000
     17 N2          3.6959   -3.2182    0.9688 N.am      1 <0>         0.0000
     18 N3          7.8323   -1.8342    0.4261 N.am      1 <0>         0.0000
     19 O1          7.3093   -1.0662   -0.5958 O.3       1 <0>         0.0000
     20 O2          9.5287   -1.8872    2.0109 O.2       1 <0>         0.0000
     21 O3          4.7482   -1.1914    0.5542 O.2       1 <0>         0.0000
     22 O4          1.6741   -2.4892    2.6314 O.2       1 <0>         0.0000
     23 H1          9.2776   -0.3659    0.7022 H         1 <0>         0.0000
     24 H2          5.7423   -3.8772    5.0075 H         1 <0>         0.0000
     25 H3          4.4501   -3.9417    3.7978 H         1 <0>         0.0000
     26 H4          4.1642   -3.1925    5.3800 H         1 <0>         0.0000
     27 H5          6.7922   -1.5734    5.6261 H         1 <0>         0.0000
     28 H6          6.2016   -0.1209    4.7985 H         1 <0>         0.0000
     29 H7          5.1564   -0.9697    5.9440 H         1 <0>         0.0000
     30 H8          2.8872   -4.1345   -2.0879 H         1 <0>         0.0000
     31 H9          2.1738   -5.7124   -1.7140 H         1 <0>         0.0000
     32 H10         3.5794   -5.1449   -0.8119 H         1 <0>         0.0000
     33 H11         0.7565   -4.7621    1.6349 H         1 <0>         0.0000
     34 H12         2.3282   -5.5113    1.3711 H         1 <0>         0.0000
     35 H13         0.9158   -6.0685    0.4541 H         1 <0>         0.0000
     36 H14        -0.3050   -3.3025   -0.2384 H         1 <0>         0.0000
     37 H15        -0.1179   -4.6740   -1.3329 H         1 <0>         0.0000
     38 H16         0.5457   -3.0900   -1.7676 H         1 <0>         0.0000
     39 H17        -0.9522   -0.7139    1.8767 H         1 <0>         0.0000
     40 H18        -0.0213    0.7135    1.3710 H         1 <0>         0.0000
     41 H19         0.4945   -0.2269    2.7876 H         1 <0>         0.0000
     42 H20         7.3251   -2.6069    3.3666 H         1 <0>         0.0000
     43 H21         6.7588   -1.1249    2.6110 H         1 <0>         0.0000
     44 H22         7.8751   -3.7989    1.0081 H         1 <0>         0.0000
     45 H23         6.7546   -3.4103   -0.3032 H         1 <0>         0.0000
     46 H24         5.7385   -3.9535    2.0094 H         1 <0>         0.0000
     47 H25         2.6549   -2.1876   -0.4426 H         1 <0>         0.0000
     48 H26         4.4913   -1.4577    3.6101 H         1 <0>         0.0000
     49 H27         0.8872   -0.9429   -0.0594 H         1 <0>         0.0000
     50 H28         3.8157   -4.1378    1.3829 H         1 <0>         0.0000
@<TRIPOS>BOND
     1    1   18 am
     2    1   20 2
     3    2   12 1
     4    2   17 am
     5    2   21 2
     6    3   13 1
     7    3   16 am
     8    3   22 2
     9    4   14 1
    10    5   14 1
    11    6   15 1
    12    7   15 1
    13    8   15 1
    14    9   16 1
    15   10   12 1
    16   10   14 1
    17   11   12 1
    18   11   18 1
    19   13   15 1
    20   13   17 1
    21   18   19 1
    22    1   23 1
    23    4   24 1
    24    4   25 1
    25    4   26 1
    26    5   27 1
    27    5   28 1
    28    5   29 1
    29    6   30 1
    30    6   31 1
    31    6   32 1
    32    7   33 1
    33    7   34 1
    34    7   35 1
    35    8   36 1
    36    8   37 1
    37    8   38 1
    38    9   39 1
    39    9   40 1
    40    9   41 1
    41   10   42 1
    42   10   43 1
    43   11   44 1
    44   11   45 1
    45   12   46 1
    46   13   47 1
    47   14   48 1
    48   16   49 1
    49   17   50 1
@<TRIPOS>MOLECULE
LIGAND
   50    49     0     0     0
SMALL
NO_CHARGES

@<TRIPOS>ATOM
      1 C1          8.4401   -2.2571   -0.5690 C.2       1 <0>         0.0000
      2 C2          4.7609   -2.3304    1.0158 C.2       1 <0>         0.0000
      3 C3          1.6238   -2.1763    1.4428 C.2       1 <0>         0.0000
      4 C4          5.5916   -1.8934    4.5978 C.3       1 <0>         0.0000
      5 C5          7.0929    0.0222    4.0244 C.3       1 <0>         0.0000
      6 C6          2.6382   -4.8237   -1.2732 C.3       1 <0>         0.0000
      7 C7          1.4139   -5.1834    0.8654 C.3       1 <0>         0.0000
      8 C8          0.3871   -3.7862   -0.9377 C.3       1 <0>         0.0000
      9 C9          1.1427   -2.2044    3.8715 C.3       1 <0>         0.0000
     10 C10         6.8665   -1.8668    2.3816 C.3       1 <0>         0.0000
     11 C11         6.8055   -3.7427    0.6616 C.3       1 <0>         0.0000
     12 C12         5.9953   -2.9363    1.6910 C.3       1 <0>         0.0000
     13 C13         2.4245   -2.8999    0.3599 C.3       1 <0>         0.0000
     14 C14         6.1374   -1.0321    3.4575 C.3       1 <0>         0.0000
     15 C15         1.7114   -4.1488   -0.2382 C.3       1 <0>         0.0000
     16 N1          1.8198   -2.7177    2.7048 N.am      1 <0>         0.0000
     17 N2          3.6959   -3.2182    0.9688 N.am      1 <0>         0.0000
     18 N3          7.2606   -2.9528   -0.4510 N.am      1 <0>         0.0000
     19 O1          6.3854   -2.9043   -1.5183 O.3       1 <0>         0.0000
     20 O2          9.3298   -2.1878    0.2738 O.2       1 <0>         0.0000
     21 O3          4.7482   -1.1914    0.5542 O.2       1 <0>         0.0000
     22 O4          0.8744   -1.2316    1.1999 O.2       1 <0>         0.0000
     23 H1          8.5459   -1.7288   -1.5330 H         1 <0>         0.0000
     24 H2          6.4006   -2.4456    5.0885 H         1 <0>         0.0000
     25 H3          4.8609   -2.6219    4.2310 H         1 <0>         0.0000
     26 H4          5.1097   -1.2817    5.3659 H         1 <0>         0.0000
     27 H5          7.9623   -0.4436    4.5008 H         1 <0>         0.0000
     28 H6          7.4545    0.6861    3.2321 H         1 <0>         0.0000
     29 H7          6.5886    0.6429    4.7727 H         1 <0>         0.0000
     30 H8          2.8872   -4.1345   -2.0879 H         1 <0>         0.0000
     31 H9          2.1738   -5.7124   -1.7140 H         1 <0>         0.0000
     32 H10         3.5794   -5.1449   -0.8119 H         1 <0>         0.0000
     33 H11         0.7565   -4.7621    1.6349 H         1 <0>         0.0000
     34 H12         2.3282   -5.5113    1.3711 H         1 <0>         0.0000
     35 H13         0.9158   -6.0685    0.4541 H         1 <0>         0.0000
     36 H14        -0.3050   -3.3025   -0.2384 H         1 <0>         0.0000
     37 H15        -0.1179   -4.6740   -1.3329 H         1 <0>         0.0000
     38 H16         0.5457   -3.0900   -1.7676 H         1 <0>         0.0000
     39 H17         1.7401   -1.4157    4.3360 H         1 <0>         0.0000
     40 H18         0.9874   -3.0042    4.6007 H         1 <0>         0.0000
     41 H19         0.1698   -1.7909    3.5925 H         1 <0>         0.0000
     42 H20         7.7322   -2.3581    2.8457 H         1 <0>         0.0000
     43 H21         7.2705   -1.1813    1.6250 H         1 <0>         0.0000
     44 H22         7.6920   -4.1821    1.1312 H         1 <0>         0.0000
     45 H23         6.2097   -4.5617    0.2452 H         1 <0>         0.0000
     46 H24         5.6479   -3.6501    2.4472 H         1 <0>         0.0000
     47 H25         2.6549   -2.1876   -0.4426 H         1 <0>         0.0000
     48 H26         5.2955   -0.5008    2.9986 H         1 <0>         0.0000
     49 H27         2.4595   -3.4993    2.8111 H         1 <0>         0.0000
     50 H28         3.8157   -4.1378    1.3829 H         1 <0>         0.0000
@<TRIPOS>BOND
     1    1   18 am
     2    1   20 2
     3    2   12 1
     4    2   17 am
     5    2   21 2
     6    3   13 1
     7    3   16 am
     8    3   22 2
     9    4   14 1
    10    5   14 1
    11    6   15 1
    12    7   15 1
    13    8   15 1
    14    9   16 1
    15   10   12 1
    16   10   14 1
    17   11   12 1
    18   11   18 1
    19   13   15 1
    20   13   17 1
    21   18   19 1
    22    1   23 1
    23    4   24 1
    24    4   25 1
    25    4   26 1
    26    5   27 1
    27    5   28 1
    28    5   29 1
    29    6   30 1
    30    6   31 1
    31    6   32 1
    32    7   33 1
    33    7   34 1
    34    7   35 1
    35    8   36 1
    36    8   37 1
    37    8   38 1
    38    9   39 1
    39    9   40 1
    40    9   41 1
    41   10   42 1
    42   10   43 1
    43   11   44 1
    44   11   45 1
    45   12   46 1
    46   13   47 1
    47   14   48 1
    48   16   49 1
    49   17   50 1
@<TRIPOS>MOLECULE
LIGAND
   50    49     0     0     0
SMALL
NO_CHARGES

@<TRIPOS>ATOM
      1 C1          8.9310   -2.5277    0.0294 C.2       1 <0>         0.0000
      2 C2          4.7609   -2.3304    1.0158 C.2       1 <0>         0.0000
      3 C3          1.3743   -3.6105    1.2141 C.2       1 <0>         0.0000
      4 C4          5.5916   -1.8934    4.5978 C.3       1 <0>         0.0000
      5 C5          7.0929    0.0222    4.0244 C.3       1 <0>         0.0000
      6 C6          3.5112   -2.5312   -1.8976 C.3       1 <0>         0.0000
      7 C7          2.5798   -4.7765   -1.3563 C.3       1 <0>         0.0000
      8 C8          1.0336   -2.8618   -1.8044 C.3       1 <0>         0.0000
      9 C9         -0.8899   -3.3247    2.1744 C.3       1 <0>         0.0000
     10 C10         6.8665   -1.8668    2.3816 C.3       1 <0>         0.0000
     11 C11         6.8055   -3.7427    0.6616 C.3       1 <0>         0.0000
     12 C12         5.9953   -2.9363    1.6910 C.3       1 <0>         0.0000
     13 C13         2.4245   -2.8999    0.3599 C.3       1 <0>         0.0000
     14 C14         6.1374   -1.0321    3.4575 C.3       1 <0>         0.0000
     15 C15         2.3718   -3.2623   -1.1540 C.3       1 <0>         0.0000
     16 N1          0.2223   -2.8565    1.3827 N.am      1 <0>         0.0000
     17 N2          3.6959   -3.2182    0.9688 N.am      1 <0>         0.0000
     18 N3          7.6315   -2.9222   -0.1830 N.am      1 <0>         0.0000
     19 O1          7.0188   -2.4912   -1.3434 O.3       1 <0>         0.0000
     20 O2          9.6275   -2.8139    0.9986 O.2       1 <0>         0.0000
     21 O3          4.7482   -1.1914    0.5542 O.2       1 <0>         0.0000
     22 O4          1.5569   -4.7218    1.7089 O.2       1 <0>         0.0000
     23 H1          9.3375   -1.8953   -0.7795 H         1 <0>         0.0000
     24 H2          6.4006   -2.4456    5.0885 H         1 <0>         0.0000
     25 H3          4.8609   -2.6219    4.2310 H         1 <0>         0.0000
     26 H4          5.1097   -1.2817    5.3659 H         1 <0>         0.0000
     27 H5          7.9623   -0.4436    4.5008 H         1 <0>         0.0000
     28 H6          7.4545    0.6861    3.2321 H         1 <0>         0.0000
     29 H7          6.5886    0.6429    4.7727 H         1 <0>         0.0000
     30 H8          3.4182   -1.4447   -1.7906 H         1 <0>         0.0000
     31 H9          3.5120   -2.7653   -2.9677 H         1 <0>         0.0000
     32 H10         4.4918   -2.8203   -1.5020 H         1 <0>         0.0000
     33 H11         1.7979   -5.3538   -0.8491 H         1 <0>         0.0000
     34 H12         3.5395   -5.1121   -0.9494 H         1 <0>         0.0000
     35 H13         2.5489   -5.0416   -2.4191 H         1 <0>         0.0000
     36 H14         0.1926   -3.3589   -1.3070 H         1 <0>         0.0000
     37 H15         0.9978   -3.1431   -2.8622 H         1 <0>         0.0000
     38 H16         0.8573   -1.7835   -1.7352 H         1 <0>         0.0000
     39 H17        -1.5882   -3.8849    1.5471 H         1 <0>         0.0000
     40 H18        -1.4189   -2.4783    2.6208 H         1 <0>         0.0000
     41 H19        -0.5348   -3.9781    2.9759 H         1 <0>         0.0000
     42 H20         7.7322   -2.3581    2.8457 H         1 <0>         0.0000
     43 H21         7.2705   -1.1813    1.6250 H         1 <0>         0.0000
     44 H22         7.4659   -4.4552    1.1672 H         1 <0>         0.0000
     45 H23         6.1454   -4.3134    0.0001 H         1 <0>         0.0000
     46 H24         5.6479   -3.6501    2.4472 H         1 <0>         0.0000
     47 H25         2.3043   -1.8161    0.4837 H         1 <0>         0.0000
     48 H26         5.2955   -0.5008    2.9986 H         1 <0>         0.0000
     49 H27         0.1595   -1.9470    0.9352 H         1 <0>         0.0000
     50 H28         3.8157   -4.1378    1.3829 H         1 <0>         0.0000
@<TRIPOS>BOND
     1    1   18 am
     2    1   20 2
     3    2   12 1
     4    2   17 am
     5    2   21 2
     6    3   13 1
     7    3   16 am
     8    3   22 2
     9    4   14 1
    10    5   14 1
    11    6   15 1
    12    7   15 1
    13    8   15 1
    14    9   16 1
    15   10   12 1
    16   10   14 1
    17   11   12 1
    18   11   18 1
    19   13   15 1
    20   13   17 1
    21   18   19 1
    22    1   23 1
    23    4   24 1
    24    4   25 1
    25    4   26 1
    26    5   27 1
    27    5   28 1
    28    5   29 1
    29    6   30 1
    30    6   31 1
    31    6   32 1
    32    7   33 1
    33    7   34 1
    34    7   35 1
    35    8   36 1
    36    8   37 1
    37    8   38 1
    38    9   39 1
    39    9   40 1
    40    9   41 1
    41   10   42 1
    42   10   43 1
    43   11   44 1
    44   11   45 1
    45   12   46 1
    46   13   47 1
    47   14   48 1
    48   16   49 1
    49   17   50 1
@<TRIPOS>MOLECULE
LIGAND
   50    49     0     0     0
SMALL
NO_CHARGES

@<TRIPOS>ATOM
      1 C1          7.3535   -4.0001   -0.9624 C.2       1 <0>         0.0000
      2 C2          4.7609   -2.3304    1.0158 C.2       1 <0>         0.0000
      3 C3          1.6238   -2.1763    1.4428 C.2       1 <0>         0.0000
      4 C4          4.6188   -4.7049    3.8537 C.3       1 <0>         0.0000
      5 C5          4.9148   -2.8132    5.4620 C.3       1 <0>         0.0000
      6 C6          2.6382   -4.8237   -1.2732 C.3       1 <0>         0.0000
      7 C7          1.4139   -5.1834    0.8654 C.3       1 <0>         0.0000
      8 C8          0.3871   -3.7862   -0.9377 C.3       1 <0>         0.0000
      9 C9          0.0532   -0.2939    1.7895 C.3       1 <0>         0.0000
     10 C10         6.0212   -2.6662    3.2096 C.3       1 <0>         0.0000
     11 C11         7.2695   -2.4142    1.0053 C.3       1 <0>         0.0000
     12 C12         5.9953   -2.9363    1.6910 C.3       1 <0>         0.0000
     13 C13         2.4245   -2.8999    0.3599 C.3       1 <0>         0.0000
     14 C14         4.7908   -3.1904    3.9826 C.3       1 <0>         0.0000
     15 C15         1.7114   -4.1488   -0.2382 C.3       1 <0>         0.0000
     16 N1          0.8675   -1.1285    0.9389 N.am      1 <0>         0.0000
     17 N2          3.6959   -3.2182    0.9688 N.am      1 <0>         0.0000
     18 N3          7.3436   -2.7497   -0.3914 N.am      1 <0>         0.0000
     19 O1          7.4124   -1.6632   -1.2413 O.3       1 <0>         0.0000
     20 O2          7.2996   -5.0713   -0.3656 O.2       1 <0>         0.0000
     21 O3          4.7482   -1.1914    0.5542 O.2       1 <0>         0.0000
     22 O4          1.6741   -2.4892    2.6314 O.2       1 <0>         0.0000
     23 H1          7.4170   -3.9808   -2.0648 H         1 <0>         0.0000
     24 H2          5.5037   -5.2294    4.2303 H         1 <0>         0.0000
     25 H3          4.4709   -5.0006    2.8097 H         1 <0>         0.0000
     26 H4          3.7637   -5.0613    4.4353 H         1 <0>         0.0000
     27 H5          5.8053   -3.2631    5.9141 H         1 <0>         0.0000
     28 H6          4.9845   -1.7270    5.5823 H         1 <0>         0.0000
     29 H7          4.0398   -3.1538    6.0255 H         1 <0>         0.0000
     30 H8          2.8872   -4.1345   -2.0879 H         1 <0>         0.0000
     31 H9          2.1738   -5.7124   -1.7140 H         1 <0>         0.0000
     32 H10         3.5794   -5.1449   -0.8119 H         1 <0>         0.0000
     33 H11         0.7565   -4.7621    1.6349 H         1 <0>         0.0000
     34 H12         2.3282   -5.5113    1.3711 H         1 <0>         0.0000
     35 H13         0.9158   -6.0685    0.4541 H         1 <0>         0.0000
     36 H14        -0.3050   -3.3025   -0.2384 H         1 <0>         0.0000
     37 H15        -0.1179   -4.6740   -1.3329 H         1 <0>         0.0000
     38 H16         0.5457   -3.0900   -1.7676 H         1 <0>         0.0000
     39 H17        -0.9522   -0.7139    1.8767 H         1 <0>         0.0000
     40 H18        -0.0213    0.7135    1.3710 H         1 <0>         0.0000
     41 H19         0.4945   -0.2269    2.7876 H         1 <0>         0.0000
     42 H20         6.9244   -3.1220    3.6370 H         1 <0>         0.0000
     43 H21         6.1083   -1.5861    3.3865 H         1 <0>         0.0000
     44 H22         7.3249   -1.3230    1.0798 H         1 <0>         0.0000
     45 H23         8.1679   -2.8255    1.4773 H         1 <0>         0.0000
     46 H24         5.9704   -4.0198    1.5260 H         1 <0>         0.0000
     47 H25         2.6549   -2.1876   -0.4426 H         1 <0>         0.0000
     48 H26         3.8848   -2.7101    3.5951 H         1 <0>         0.0000
     49 H27         0.8872   -0.9429   -0.0594 H         1 <0>         0.0000
     50 H28         3.8157   -4.1378    1.3829 H         1 <0>         0.0000
@<TRIPOS>BOND
     1    1   18 am
     2    1   20 2
     3    2   12 1
     4    2   17 am
     5    2   21 2
     6    3   13 1
     7    3   16 am
     8    3   22 2
     9    4   14 1
    10    5   14 1
    11    6   15 1
    12    7   15 1
    13    8   15 1
    14    9   16 1
    15   10   12 1
    16   10   14 1
    17   11   12 1
    18   11   18 1
    19   13   15 1
    20   13   17 1
    21   18   19 1
    22    1   23 1
    23    4   24 1
    24    4   25 1
    25    4   26 1
    26    5   27 1
    27    5   28 1
    28    5   29 1
    29    6   30 1
    30    6   31 1
    31    6   32 1
    32    7   33 1
    33    7   34 1
    34    7   35 1
    35    8   36 1
    36    8   37 1
    37    8   38 1
    38    9   39 1
    39    9   40 1
    40    9   41 1
    41   10   42 1
    42   10   43 1
    43   11   44 1
    44   11   45 1
    45   12   46 1
    46   13   47 1
    47   14   48 1
    48   16   49 1
    49   17   50 1
@<TRIPOS>MOLECULE
LIGAND
   50    49     0     0     0
SMALL
NO_CHARGES

@<TRIPOS>ATOM
      1 C1          7.4494   -6.0057    1.5877 C.2       1 <0>         0.0000
      2 C2          4.7609   -2.3304    1.0158 C.2       1 <0>         0.0000
      3 C3          1.6238   -2.1763    1.4428 C.2       1 <0>         0.0000
      4 C4          5.5916   -1.8934    4.5978 C.3       1 <0>         0.0000
      5 C5          7.0929    0.0222    4.0244 C.3       1 <0>         0.0000
      6 C6          2.6382   -4.8237   -1.2732 C.3       1 <0>         0.0000
      7 C7          1.4139   -5.1834    0.8654 C.3       1 <0>         0.0000
      8 C8          0.3871   -3.7862   -0.9377 C.3       1 <0>         0.0000
      9 C9          1.1427   -2.2044    3.8715 C.3       1 <0>         0.0000
     10 C10         6.8665   -1.8668    2.3816 C.3       1 <0>         0.0000
     11 C11         6.8055   -3.7427    0.6616 C.3       1 <0>         0.0000
     12 C12         5.9953   -2.9363    1.6910 C.3       1 <0>         0.0000
     13 C13         2.4245   -2.8999    0.3599 C.3       1 <0>         0.0000
     14 C14         6.1374   -1.0321    3.4575 C.3       1 <0>         0.0000
     15 C15         1.7114   -4.1488   -0.2382 C.3       1 <0>         0.0000
     16 N1          1.8198   -2.7177    2.7048 N.am      1 <0>         0.0000
     17 N2          3.6959   -3.2182    0.9688 N.am      1 <0>         0.0000
     18 N3          7.7018   -4.6947    1.2608 N.am      1 <0>         0.0000
     19 O1          8.9648   -4.2050    1.5307 O.3       1 <0>         0.0000
     20 O2          6.3911   -6.6048    1.4210 O.2       1 <0>         0.0000
     21 O3          4.7482   -1.1914    0.5542 O.2       1 <0>         0.0000
     22 O4          0.8744   -1.2316    1.1999 O.2       1 <0>         0.0000
     23 H1          8.3147   -6.5219    2.0397 H         1 <0>         0.0000
     24 H2          6.4006   -2.4456    5.0885 H         1 <0>         0.0000
     25 H3          4.8609   -2.6219    4.2310 H         1 <0>         0.0000
     26 H4          5.1097   -1.2817    5.3659 H         1 <0>         0.0000
     27 H5          7.9623   -0.4436    4.5008 H         1 <0>         0.0000
     28 H6          7.4545    0.6861    3.2321 H         1 <0>         0.0000
     29 H7          6.5886    0.6429    4.7727 H         1 <0>         0.0000
     30 H8          2.8872   -4.1345   -2.0879 H         1 <0>         0.0000
     31 H9          2.1738   -5.7124   -1.7140 H         1 <0>         0.0000
     32 H10         3.5794   -5.1449   -0.8119 H         1 <0>         0.0000
     33 H11         0.7565   -4.7621    1.6349 H         1 <0>         0.0000
     34 H12         2.3282   -5.5113    1.3711 H         1 <0>         0.0000
     35 H13         0.9158   -6.0685    0.4541 H         1 <0>         0.0000
     36 H14        -0.3050   -3.3025   -0.2384 H         1 <0>         0.0000
     37 H15        -0.1179   -4.6740   -1.3329 H         1 <0>         0.0000
     38 H16         0.5457   -3.0900   -1.7676 H         1 <0>         0.0000
     39 H17         1.7401   -1.4157    4.3360 H         1 <0>         0.0000
     40 H18         0.9874   -3.0042    4.6007 H         1 <0>         0.0000
     41 H19         0.1698   -1.7909    3.5925 H         1 <0>         0.0000
     42 H20         7.7322   -2.3581    2.8457 H         1 <0>         0.0000
     43 H21         7.2705   -1.1813    1.6250 H         1 <0>         0.0000
     44 H22         6.1354   -4.3010   -0.0008 H         1 <0>         0.0000
     45 H23         7.4165   -3.0830    0.0367 H         1 <0>         0.0000
     46 H24         5.6479   -3.6501    2.4472 H         1 <0>         0.0000
     47 H25         2.6549   -2.1876   -0.4426 H         1 <0>         0.0000
     48 H26         5.2955   -0.5008    2.9986 H         1 <0>         0.0000
     49 H27         2.4595   -3.4993    2.8111 H         1 <0>         0.0000
     50 H28         3.8157   -4.1378    1.3829 H         1 <0>         0.0000
@<TRIPOS>BOND
     1    1   18 am
     2    1   20 2
     3    2   12 1
     4    2   17 am
     5    2   21 2
     6    3   13 1
     7    3   16 am
     8    3   22 2
     9    4   14 1
    10    5   14 1
    11    6   15 1
    12    7   15 1
    13    8   15 1
    14    9   16 1
    15   10   12 1
    16   10   14 1
    17   11   12 1
    18   11   18 1
    19   13   15 1
    20   13   17 1
    21   18   19 1
    22    1   23 1
    23    4   24 1
    24    4   25 1
    25    4   26 1
    26    5   27 1
    27    5   28 1
    28    5   29 1
    29    6   30 1
    30    6   31 1
    31    6   32 1
    32    7   33 1
    33    7   34 1
    34    7   35 1
    35    8   36 1
    36    8   37 1
    37    8   38 1
    38    9   39 1
    39    9   40 1
    40    9   41 1
    41   10   42 1
    42   10   43 1
    43   11   44 1
    44   11   45 1
    45   12   46 1
    46   13   47 1
    47   14   48 1
    48   16   49 1
    49   17   50 1
@<TRIPOS>MOLECULE
LIGAND
   50    49     0     0     0
SMALL
NO_CHARGES

@<TRIPOS>ATOM
      1 C1          7.5576   -2.3672    4.6544 C.2       1 <0>         0.0000
      2 C2          4.7609   -2.3304    1.0158 C.2       1 <0>         0.0000
      3 C3          1.6238   -2.1763    1.4428 C.2       1 <0>         0.0000
      4 C4          7.9668   -2.9805   -0.7195 C.3       1 <0>         0.0000
      5 C5          7.2752   -5.3485   -1.1277 C.3       1 <0>         0.0000
      6 C6          2.6382   -4.8237   -1.2732 C.3       1 <0>         0.0000
      7 C7          1.4139   -5.1834    0.8654 C.3       1 <0>         0.0000
      8 C8          0.3871   -3.7862   -0.9377 C.3       1 <0>         0.0000
      9 C9          1.1427   -2.2044    3.8715 C.3       1 <0>         0.0000
     10 C10         6.4903   -4.2069    0.9698 C.3       1 <0>         0.0000
     11 C11         5.6912   -3.2135    3.1734 C.3       1 <0>         0.0000
     12 C12         5.9953   -2.9363    1.6910 C.3       1 <0>         0.0000
     13 C13         2.4245   -2.8999    0.3599 C.3       1 <0>         0.0000
     14 C14         6.8518   -4.0083   -0.5189 C.3       1 <0>         0.0000
     15 C15         1.7114   -4.1488   -0.2382 C.3       1 <0>         0.0000
     16 N1          1.8198   -2.7177    2.7048 N.am      1 <0>         0.0000
     17 N2          3.6959   -3.2182    0.9688 N.am      1 <0>         0.0000
     18 N3          6.8729   -3.3510    3.9817 N.am      1 <0>         0.0000
     19 O1          7.3583   -4.6406    4.0766 O.3       1 <0>         0.0000
     20 O2          7.2727   -1.1736    4.6825 O.2       1 <0>         0.0000
     21 O3          4.7482   -1.1914    0.5542 O.2       1 <0>         0.0000
     22 O4          0.8744   -1.2316    1.1999 O.2       1 <0>         0.0000
     23 H1          8.4389   -2.7411    5.2052 H         1 <0>         0.0000
     24 H2          8.8753   -3.2848   -0.1883 H         1 <0>         0.0000
     25 H3          7.6713   -1.9951   -0.3441 H         1 <0>         0.0000
     26 H4          8.2323   -2.8793   -1.7758 H         1 <0>         0.0000
     27 H5          8.1599   -5.7527   -0.6240 H         1 <0>         0.0000
     28 H6          6.4698   -6.0859   -1.0440 H         1 <0>         0.0000
     29 H7          7.5125   -5.2358   -2.1909 H         1 <0>         0.0000
     30 H8          2.8872   -4.1345   -2.0879 H         1 <0>         0.0000
     31 H9          2.1738   -5.7124   -1.7140 H         1 <0>         0.0000
     32 H10         3.5794   -5.1449   -0.8119 H         1 <0>         0.0000
     33 H11         0.7565   -4.7621    1.6349 H         1 <0>         0.0000
     34 H12         2.3282   -5.5113    1.3711 H         1 <0>         0.0000
     35 H13         0.9158   -6.0685    0.4541 H         1 <0>         0.0000
     36 H14        -0.3050   -3.3025   -0.2384 H         1 <0>         0.0000
     37 H15        -0.1179   -4.6740   -1.3329 H         1 <0>         0.0000
     38 H16         0.5457   -3.0900   -1.7676 H         1 <0>         0.0000
     39 H17         1.7401   -1.4157    4.3360 H         1 <0>         0.0000
     40 H18         0.9874   -3.0042    4.6007 H         1 <0>         0.0000
     41 H19         0.1698   -1.7909    3.5925 H         1 <0>         0.0000
     42 H20         7.3727   -4.5944    1.4964 H         1 <0>         0.0000
     43 H21         5.7222   -4.9884    1.0394 H         1 <0>         0.0000
     44 H22         5.0986   -2.3982    3.6018 H         1 <0>         0.0000
     45 H23         5.1177   -4.1388    3.2917 H         1 <0>         0.0000
     46 H24         6.7931   -2.1847    1.6686 H         1 <0>         0.0000
     47 H25         2.6549   -2.1876   -0.4426 H         1 <0>         0.0000
     48 H26         5.9671   -3.6628   -1.0661 H         1 <0>         0.0000
     49 H27         2.4595   -3.4993    2.8111 H         1 <0>         0.0000
     50 H28         3.8157   -4.1378    1.3829 H         1 <0>         0.0000
@<TRIPOS>BOND
     1    1   18 am
     2    1   20 2
     3    2   12 1
     4    2   17 am
     5    2   21 2
     6    3   13 1
     7    3   16 am
     8    3   22 2
     9    4   14 1
    10    5   14 1
    11    6   15 1
    12    7   15 1
    13    8   15 1
    14    9   16 1
    15   10   12 1
    16   10   14 1
    17   11   12 1
    18   11   18 1
    19   13   15 1
    20   13   17 1
    21   18   19 1
    22    1   23 1
    23    4   24 1
    24    4   25 1
    25    4   26 1
    26    5   27 1
    27    5   28 1
    28    5   29 1
    29    6   30 1
    30    6   31 1
    31    6   32 1
    32    7   33 1
    33    7   34 1
    34    7   35 1
    35    8   36 1
    36    8   37 1
    37    8   38 1
    38    9   39 1
    39    9   40 1
    40    9   41 1
    41   10   42 1
    42   10   43 1
    43   11   44 1
    44   11   45 1
    45   12   46 1
    46   13   47 1
    47   14   48 1
    48   16   49 1
    49   17   50 1
@<TRIPOS>MOLECULE
LIGAND
   50    49     0     0     0
SMALL
NO_CHARGES

@<TRIPOS>ATOM
      1 C1          6.8953   -4.2650   -1.5494 C.2       1 <0>         0.0000
      2 C2          4.7609   -2.3304    1.0158 C.2       1 <0>         0.0000
      3 C3          1.4114   -2.9063    1.5049 C.2       1 <0>         0.0000
      4 C4          4.8998   -3.3220    4.5808 C.3       1 <0>         0.0000
      5 C5          5.9126   -1.1117    5.1647 C.3       1 <0>         0.0000
      6 C6          3.1857   -3.8003   -1.8813 C.3       1 <0>         0.0000
      7 C7          1.9543   -5.3076   -0.3278 C.3       1 <0>         0.0000
      8 C8          0.7370   -3.4626   -1.4991 C.3       1 <0>         0.0000
      9 C9         -0.5781   -1.7107    2.3670 C.3       1 <0>         0.0000
     10 C10         6.4405   -2.1272    2.9267 C.3       1 <0>         0.0000
     11 C11         7.1342   -3.0688    0.6654 C.3       1 <0>         0.0000
     12 C12         5.9953   -2.9363    1.6910 C.3       1 <0>         0.0000
     13 C13         2.4245   -2.8999    0.3599 C.3       1 <0>         0.0000
     14 C14         5.3645   -1.9750    4.0244 C.3       1 <0>         0.0000
     15 C15         2.0646   -3.8508   -0.8201 C.3       1 <0>         0.0000
     16 N1          0.4604   -1.9038    1.3835 N.am      1 <0>         0.0000
     17 N2          3.6959   -3.2182    0.9688 N.am      1 <0>         0.0000
     18 N3          7.0083   -4.2255   -0.1801 N.am      1 <0>         0.0000
     19 O1          7.0029   -5.4319    0.4925 O.3       1 <0>         0.0000
     20 O2          6.7892   -5.2738   -2.2405 O.2       1 <0>         0.0000
     21 O3          4.7482   -1.1914    0.5542 O.2       1 <0>         0.0000
     22 O4          1.4623   -3.7076    2.4368 O.2       1 <0>         0.0000
     23 H1          6.9064   -3.2668   -2.0216 H         1 <0>         0.0000
     24 H2          5.7423   -3.8772    5.0075 H         1 <0>         0.0000
     25 H3          4.4501   -3.9417    3.7978 H         1 <0>         0.0000
     26 H4          4.1642   -3.1925    5.3800 H         1 <0>         0.0000
     27 H5          6.7922   -1.5734    5.6261 H         1 <0>         0.0000
     28 H6          6.2016   -0.1209    4.7985 H         1 <0>         0.0000
     29 H7          5.1564   -0.9697    5.9440 H         1 <0>         0.0000
     30 H8          3.3133   -2.7845   -2.2720 H         1 <0>         0.0000
     31 H9          2.9723   -4.4622   -2.7277 H         1 <0>         0.0000
     32 H10         4.1465   -4.1154   -1.4578 H         1 <0>         0.0000
     33 H11         1.1705   -5.4095    0.4319 H         1 <0>         0.0000
     34 H12         2.8879   -5.6535    0.1281 H         1 <0>         0.0000
     35 H13         1.7055   -5.9859   -1.1517 H         1 <0>         0.0000
     36 H14        -0.0909   -3.4848   -0.7807 H         1 <0>         0.0000
     37 H15         0.4812   -4.1517   -2.3109 H         1 <0>         0.0000
     38 H16         0.7762   -2.4505   -1.9146 H         1 <0>         0.0000
     39 H17        -1.4589   -2.3023    2.1044 H         1 <0>         0.0000
     40 H18        -0.8634   -0.6562    2.4133 H         1 <0>         0.0000
     41 H19        -0.2264   -2.0222    3.3542 H         1 <0>         0.0000
     42 H20         7.3251   -2.6069    3.3666 H         1 <0>         0.0000
     43 H21         6.7588   -1.1249    2.6110 H         1 <0>         0.0000
     44 H22         7.1645   -2.1910    0.0112 H         1 <0>         0.0000
     45 H23         8.1063   -3.1455    1.1636 H         1 <0>         0.0000
     46 H24         5.7385   -3.9535    2.0094 H         1 <0>         0.0000
     47 H25         2.5279   -1.8729   -0.0129 H         1 <0>         0.0000
     48 H26         4.4913   -1.4577    3.6101 H         1 <0>         0.0000
     49 H27         0.4960   -1.2867    0.5777 H         1 <0>         0.0000
     50 H28         3.8157   -4.1378    1.3829 H         1 <0>         0.0000
@<TRIPOS>BOND
     1    1   18 am
     2    1   20 2
     3    2   12 1
     4    2   17 am
     5    2   21 2
     6    3   13 1
     7    3   16 am
     8    3   22 2
     9    4   14 1
    10    5   14 1
    11    6   15 1
    12    7   15 1
    13    8   15 1
    14    9   16 1
    15   10   12 1
    16   10   14 1
    17   11   12 1
    18   11   18 1
    19   13   15 1
    20   13   17 1
    21   18   19 1
    22    1   23 1
    23    4   24 1
    24    4   25 1
    25    4   26 1
    26    5   27 1
    27    5   28 1
    28    5   29 1
    29    6   30 1
    30    6   31 1
    31    6   32 1
    32    7   33 1
    33    7   34 1
    34    7   35 1
    35    8   36 1
    36    8   37 1
    37    8   38 1
    38    9   39 1
    39    9   40 1
    40    9   41 1
    41   10   42 1
    42   10   43 1
    43   11   44 1
    44   11   45 1
    45   12   46 1
    46   13   47 1
    47   14   48 1
    48   16   49 1
    49   17   50 1
@<TRIPOS>MOLECULE
LIGAND
   50    49     0     0     0
SMALL
NO_CHARGES

@<TRIPOS>ATOM
      1 C1          6.6167   -2.7186   -1.6426 C.2       1 <0>         0.0000
      2 C2          4.7609   -2.3304    1.0158 C.2       1 <0>         0.0000
      3 C3          1.6238   -2.1763    1.4428 C.2       1 <0>         0.0000
      4 C4          5.5916   -1.8934    4.5978 C.3       1 <0>         0.0000
      5 C5          7.0929    0.0222    4.0244 C.3       1 <0>         0.0000
      6 C6          2.6382   -4.8237   -1.2732 C.3       1 <0>         0.0000
      7 C7          1.4139   -5.1834    0.8654 C.3       1 <0>         0.0000
      8 C8          0.3871   -3.7862   -0.9377 C.3       1 <0>         0.0000
      9 C9          1.1427   -2.2044    3.8715 C.3       1 <0>         0.0000
     10 C10         6.8665   -1.8668    2.3816 C.3       1 <0>         0.0000
     11 C11         6.8055   -3.7427    0.6616 C.3       1 <0>         0.0000
     12 C12         5.9953   -2.9363    1.6910 C.3       1 <0>         0.0000
     13 C13         2.4245   -2.8999    0.3599 C.3       1 <0>         0.0000
     14 C14         6.1374   -1.0321    3.4575 C.3       1 <0>         0.0000
     15 C15         1.7114   -4.1488   -0.2382 C.3       1 <0>         0.0000
     16 N1          1.8198   -2.7177    2.7048 N.am      1 <0>         0.0000
     17 N2          3.6959   -3.2182    0.9688 N.am      1 <0>         0.0000
     18 N3          7.2606   -2.9528   -0.4510 N.am      1 <0>         0.0000
     19 O1          8.4998   -2.3693   -0.2736 O.3       1 <0>         0.0000
     20 O2          5.5167   -3.1530   -1.9712 O.2       1 <0>         0.0000
     21 O3          4.7482   -1.1914    0.5542 O.2       1 <0>         0.0000
     22 O4          0.8744   -1.2316    1.1999 O.2       1 <0>         0.0000
     23 H1          7.1876   -2.0725   -2.3326 H         1 <0>         0.0000
     24 H2          6.4006   -2.4456    5.0885 H         1 <0>         0.0000
     25 H3          4.8609   -2.6219    4.2310 H         1 <0>         0.0000
     26 H4          5.1097   -1.2817    5.3659 H         1 <0>         0.0000
     27 H5          7.9623   -0.4436    4.5008 H         1 <0>         0.0000
     28 H6          7.4545    0.6861    3.2321 H         1 <0>         0.0000
     29 H7          6.5886    0.6429    4.7727 H         1 <0>         0.0000
     30 H8          2.8872   -4.1345   -2.0879 H         1 <0>         0.0000
     31 H9          2.1738   -5.7124   -1.7140 H         1 <0>         0.0000
     32 H10         3.5794   -5.1449   -0.8119 H         1 <0>         0.0000
     33 H11         0.7565   -4.7621    1.6349 H         1 <0>         0.0000
     34 H12         2.3282   -5.5113    1.3711 H         1 <0>         0.0000
     35 H13         0.9158   -6.0685    0.4541 H         1 <0>         0.0000
     36 H14        -0.3050   -3.3025   -0.2384 H         1 <0>         0.0000
     37 H15        -0.1179   -4.6740   -1.3329 H         1 <0>         0.0000
     38 H16         0.5457   -3.0900   -1.7676 H         1 <0>         0.0000
     39 H17         1.7401   -1.4157    4.3360 H         1 <0>         0.0000
     40 H18         0.9874   -3.0042    4.6007 H         1 <0>         0.0000
     41 H19         0.1698   -1.7909    3.5925 H         1 <0>         0.0000
     42 H20         7.7322   -2.3581    2.8457 H         1 <0>         0.0000
     43 H21         7.2705   -1.1813    1.6250 H         1 <0>         0.0000
     44 H22         7.6920   -4.1821    1.1312 H         1 <0>         0.0000
     45 H23         6.2097   -4.5617    0.2452 H         1 <0>         0.0000
     46 H24         5.6479   -3.6501    2.4472 H         1 <0>         0.0000
     47 H25         2.6549   -2.1876   -0.4426 H         1 <0>         0.0000
     48 H26         5.2955   -0.5008    2.9986 H         1 <0>         0.0000
     49 H27         2.4595   -3.4993    2.8111 H         1 <0>         0.0000
     50 H28         3.8157   -4.1378    1.3829 H         1 <0>         0.0000
@<TRIPOS>BOND
     1    1   18 am
     2    1   20 2
     3    2   12 1
     4    2   17 am
     5    2   21 2
     6    3   13 1
     7    3   16 am
     8    3   22 2
     9    4   14 1
    10    5   14 1
    11    6   15 1
    12    7   15 1
    13    8   15 1
    14    9   16 1
    15   10   12 1
    16   10   14 1
    17   11   12 1
    18   11   18 1
    19   13   15 1
    20   13   17 1
    21   18   19 1
    22    1   23 1
    23    4   24 1
    24    4   25 1
    25    4   26 1
    26    5   27 1
    27    5   28 1
    28    5   29 1
    29    6   30 1
    30    6   31 1
    31    6   32 1
    32    7   33 1
    33    7   34 1
    34    7   35 1
    35    8   36 1
    36    8   37 1
    37    8   38 1
    38    9   39 1
    39    9   40 1
    40    9   41 1
    41   10   42 1
    42   10   43 1
    43   11   44 1
    44   11   45 1
    45   12   46 1
    46   13   47 1
    47   14   48 1
    48   16   49 1
    49   17   50 1
@<TRIPOS>MOLECULE
LIGAND
   50    49     0     0     0
SMALL
NO_CHARGES

@<TRIPOS>ATOM
      1 C1          9.0094   -4.5043    1.6394 C.2       1 <0>         0.0000
      2 C2          4.7609   -2.3304    1.0158 C.2       1 <0>         0.0000
      3 C3          1.4114   -2.9063    1.5049 C.2       1 <0>         0.0000
      4 C4          5.5916   -1.8934    4.5978 C.3       1 <0>         0.0000
      5 C5          7.0929    0.0222    4.0244 C.3       1 <0>         0.0000
      6 C6          3.1857   -3.8003   -1.8813 C.3       1 <0>         0.0000
      7 C7          1.9543   -5.3076   -0.3278 C.3       1 <0>         0.0000
      8 C8          0.7370   -3.4626   -1.4991 C.3       1 <0>         0.0000
      9 C9          1.0123   -1.9958    3.7725 C.3       1 <0>         0.0000
     10 C10         6.8665   -1.8668    2.3816 C.3       1 <0>         0.0000
     11 C11         6.8055   -3.7427    0.6616 C.3       1 <0>         0.0000
     12 C12         5.9953   -2.9363    1.6910 C.3       1 <0>         0.0000
     13 C13         2.4245   -2.8999    0.3599 C.3       1 <0>         0.0000
     14 C14         6.1374   -1.0321    3.4575 C.3       1 <0>         0.0000
     15 C15         2.0646   -3.8508   -0.8201 C.3       1 <0>         0.0000
     16 N1          1.8071   -2.1159    2.5738 N.am      1 <0>         0.0000
     17 N2          3.6959   -3.2182    0.9688 N.am      1 <0>         0.0000
     18 N3          7.7018   -4.6947    1.2608 N.am      1 <0>         0.0000
     19 O1          7.1560   -5.9460    1.4704 O.3       1 <0>         0.0000
     20 O2          9.6534   -3.4652    1.5292 O.2       1 <0>         0.0000
     21 O3          4.7482   -1.1914    0.5542 O.2       1 <0>         0.0000
     22 O4          0.3728   -3.5647    1.4736 O.2       1 <0>         0.0000
     23 H1          9.4767   -5.4035    2.0784 H         1 <0>         0.0000
     24 H2          6.4006   -2.4456    5.0885 H         1 <0>         0.0000
     25 H3          4.8609   -2.6219    4.2310 H         1 <0>         0.0000
     26 H4          5.1097   -1.2817    5.3659 H         1 <0>         0.0000
     27 H5          7.9623   -0.4436    4.5008 H         1 <0>         0.0000
     28 H6          7.4545    0.6861    3.2321 H         1 <0>         0.0000
     29 H7          6.5886    0.6429    4.7727 H         1 <0>         0.0000
     30 H8          3.3133   -2.7845   -2.2720 H         1 <0>         0.0000
     31 H9          2.9723   -4.4622   -2.7277 H         1 <0>         0.0000
     32 H10         4.1465   -4.1154   -1.4578 H         1 <0>         0.0000
     33 H11         1.1705   -5.4095    0.4319 H         1 <0>         0.0000
     34 H12         2.8879   -5.6535    0.1281 H         1 <0>         0.0000
     35 H13         1.7055   -5.9859   -1.1517 H         1 <0>         0.0000
     36 H14        -0.0909   -3.4848   -0.7807 H         1 <0>         0.0000
     37 H15         0.4812   -4.1517   -2.3109 H         1 <0>         0.0000
     38 H16         0.7762   -2.4505   -1.9146 H         1 <0>         0.0000
     39 H17         0.3100   -1.1637    3.6759 H         1 <0>         0.0000
     40 H18         1.6568   -1.8137    4.6368 H         1 <0>         0.0000
     41 H19         0.4467   -2.9155    3.9448 H         1 <0>         0.0000
     42 H20         7.7322   -2.3581    2.8457 H         1 <0>         0.0000
     43 H21         7.2705   -1.1813    1.6250 H         1 <0>         0.0000
     44 H22         6.1354   -4.3010   -0.0008 H         1 <0>         0.0000
     45 H23         7.4165   -3.0830    0.0367 H         1 <0>         0.0000
     46 H24         5.6479   -3.6501    2.4472 H         1 <0>         0.0000
     47 H25         2.5279   -1.8729   -0.0129 H         1 <0>         0.0000
     48 H26         5.2955   -0.5008    2.9986 H         1 <0>         0.0000
     49 H27         2.6832   -1.6060    2.5111 H         1 <0>         0.0000
     50 H28         3.8157   -4.1378    1.3829 H         1 <0>         0.0000
@<TRIPOS>BOND
     1    1   18 am
     2    1   20 2
     3    2   12 1
     4    2   17 am
     5    2   21 2
     6    3   13 1
     7    3   16 am
     8    3   22 2
     9    4   14 1
    10    5   14 1
    11    6   15 1
    12    7   15 1
    13    8   15 1
    14    9   16 1
    15   10   12 1
    16   10   14 1
    17   11   12 1
    18   11   18 1
    19   13   15 1
    20   13   17 1
    21   18   19 1
    22    1   23 1
    23    4   24 1
    24    4   25 1
    25    4   26 1
    26    5   27 1
    27    5   28 1
    28    5   29 1
    29    6   30 1
    30    6   31 1
    31    6   32 1
    32    7   33 1
    33    7   34 1
    34    7   35 1
    35    8   36 1
    36    8   37 1
    37    8   38 1
    38    9   39 1
    39    9   40 1
    40    9   41 1
    41   10   42 1
    42   10   43 1
    43   11   44 1
    44   11   45 1
    45   12   46 1
    46   13   47 1
    47   14   48 1
    48   16   49 1
    49   17   50 1
@<TRIPOS>MOLECULE
LIGAND
   50    49     0     0     0
SMALL
NO_CHARGES

@<TRIPOS>ATOM
      1 C1          6.8494   -5.0043    4.5318 C.2       1 <0>         0.0000
      2 C2          4.7609   -2.3304    1.0158 C.2       1 <0>         0.0000
      3 C3          1.4114   -2.9063    1.5049 C.2       1 <0>         0.0000
      4 C4          7.9668   -2.9805   -0.7195 C.3       1 <0>         0.0000
      5 C5          7.2752   -5.3485   -1.1277 C.3       1 <0>         0.0000
      6 C6          2.6765   -3.3019   -2.1277 C.3       1 <0>         0.0000
      7 C7          2.6544   -5.2554   -0.5834 C.3       1 <0>         0.0000
      8 C8          0.5425   -3.9869   -1.0173 C.3       1 <0>         0.0000
      9 C9         -0.5781   -1.7107    2.3670 C.3       1 <0>         0.0000
     10 C10         6.4903   -4.2069    0.9698 C.3       1 <0>         0.0000
     11 C11         5.6912   -3.2135    3.1734 C.3       1 <0>         0.0000
     12 C12         5.9953   -2.9363    1.6910 C.3       1 <0>         0.0000
     13 C13         2.4245   -2.8999    0.3599 C.3       1 <0>         0.0000
     14 C14         6.8518   -4.0083   -0.5189 C.3       1 <0>         0.0000
     15 C15         2.0646   -3.8508   -0.8201 C.3       1 <0>         0.0000
     16 N1          0.4604   -1.9038    1.3835 N.am      1 <0>         0.0000
     17 N2          3.6959   -3.2182    0.9688 N.am      1 <0>         0.0000
     18 N3          6.7994   -3.7930    3.8839 N.am      1 <0>         0.0000
     19 O1          7.9410   -3.0158    3.9021 O.3       1 <0>         0.0000
     20 O2          5.9362   -5.8199    4.6181 O.2       1 <0>         0.0000
     21 O3          4.7482   -1.1914    0.5542 O.2       1 <0>         0.0000
     22 O4          1.4623   -3.7076    2.4368 O.2       1 <0>         0.0000
     23 H1          7.8269   -5.2131    5.0014 H         1 <0>         0.0000
     24 H2          8.8753   -3.2848   -0.1883 H         1 <0>         0.0000
     25 H3          7.6713   -1.9951   -0.3441 H         1 <0>         0.0000
     26 H4          8.2323   -2.8793   -1.7758 H         1 <0>         0.0000
     27 H5          8.1599   -5.7527   -0.6240 H         1 <0>         0.0000
     28 H6          6.4698   -6.0859   -1.0440 H         1 <0>         0.0000
     29 H7          7.5125   -5.2358   -2.1909 H         1 <0>         0.0000
     30 H8          2.2940   -2.2998   -2.3517 H         1 <0>         0.0000
     31 H9          2.4502   -3.9477   -2.9831 H         1 <0>         0.0000
     32 H10         3.7681   -3.2311   -2.0551 H         1 <0>         0.0000
     33 H11         2.2564   -5.7011    0.3358 H         1 <0>         0.0000
     34 H12         3.7440   -5.2254   -0.4780 H         1 <0>         0.0000
     35 H13         2.4105   -5.9315   -1.4105 H         1 <0>         0.0000
     36 H14         0.0636   -4.3749   -0.1106 H         1 <0>         0.0000
     37 H15         0.3004   -4.6763   -1.8330 H         1 <0>         0.0000
     38 H16         0.0759   -3.0219   -1.2405 H         1 <0>         0.0000
     39 H17        -1.4589   -2.3023    2.1044 H         1 <0>         0.0000
     40 H18        -0.8634   -0.6562    2.4133 H         1 <0>         0.0000
     41 H19        -0.2264   -2.0222    3.3542 H         1 <0>         0.0000
     42 H20         7.3727   -4.5944    1.4964 H         1 <0>         0.0000
     43 H21         5.7222   -4.9884    1.0394 H         1 <0>         0.0000
     44 H22         5.4249   -2.2852    3.6898 H         1 <0>         0.0000
     45 H23         4.8500   -3.9063    3.2803 H         1 <0>         0.0000
     46 H24         6.7931   -2.1847    1.6686 H         1 <0>         0.0000
     47 H25         2.5279   -1.8729   -0.0129 H         1 <0>         0.0000
     48 H26         5.9671   -3.6628   -1.0661 H         1 <0>         0.0000
     49 H27         0.4960   -1.2867    0.5777 H         1 <0>         0.0000
     50 H28         3.8157   -4.1378    1.3829 H         1 <0>         0.0000
@<TRIPOS>BOND
     1    1   18 am
     2    1   20 2
     3    2   12 1
     4    2   17 am
     5    2   21 2
     6    3   13 1
     7    3   16 am
     8    3   22 2
     9    4   14 1
    10    5   14 1
    11    6   15 1
    12    7   15 1
    13    8   15 1
    14    9   16 1
    15   10   12 1
    16   10   14 1
    17   11   12 1
    18   11   18 1
    19   13   15 1
    20   13   17 1
    21   18   19 1
    22    1   23 1
    23    4   24 1
    24    4   25 1
    25    4   26 1
    26    5   27 1
    27    5   28 1
    28    5   29 1
    29    6   30 1
    30    6   31 1
    31    6   32 1
    32    7   33 1
    33    7   34 1
    34    7   35 1
    35    8   36 1
    36    8   37 1
    37    8   38 1
    38    9   39 1
    39    9   40 1
    40    9   41 1
    41   10   42 1
    42   10   43 1
    43   11   44 1
    44   11   45 1
    45   12   46 1
    46   13   47 1
    47   14   48 1
    48   16   49 1
    49   17   50 1
@<TRIPOS>MOLECULE
LIGAND
   50    49     0     0     0
SMALL
NO_CHARGES

@<TRIPOS>ATOM
      1 C1          7.0308   -1.2119   -1.0477 C.2       1 <0>         0.0000
      2 C2          4.7609   -2.3304    1.0158 C.2       1 <0>         0.0000
      3 C3          1.6238   -2.1763    1.4428 C.2       1 <0>         0.0000
      4 C4          4.8998   -3.3220    4.5808 C.3       1 <0>         0.0000
      5 C5          5.9126   -1.1117    5.1647 C.3       1 <0>         0.0000
      6 C6          2.6382   -4.8237   -1.2732 C.3       1 <0>         0.0000
      7 C7          1.4139   -5.1834    0.8654 C.3       1 <0>         0.0000
      8 C8          0.3871   -3.7862   -0.9377 C.3       1 <0>         0.0000
      9 C9          0.0532   -0.2939    1.7895 C.3       1 <0>         0.0000
     10 C10         6.4405   -2.1272    2.9267 C.3       1 <0>         0.0000
     11 C11         7.1342   -3.0688    0.6654 C.3       1 <0>         0.0000
     12 C12         5.9953   -2.9363    1.6910 C.3       1 <0>         0.0000
     13 C13         2.4245   -2.8999    0.3599 C.3       1 <0>         0.0000
     14 C14         5.3645   -1.9750    4.0244 C.3       1 <0>         0.0000
     15 C15         1.7114   -4.1488   -0.2382 C.3       1 <0>         0.0000
     16 N1          0.8675   -1.1285    0.9389 N.am      1 <0>         0.0000
     17 N2          3.6959   -3.2182    0.9688 N.am      1 <0>         0.0000
     18 N3          7.5271   -1.8131    0.0844 N.am      1 <0>         0.0000
     19 O1          8.5280   -1.1509    0.7681 O.3       1 <0>         0.0000
     20 O2          6.1462   -1.6525   -1.7755 O.2       1 <0>         0.0000
     21 O3          4.7482   -1.1914    0.5542 O.2       1 <0>         0.0000
     22 O4          1.6741   -2.4892    2.6314 O.2       1 <0>         0.0000
     23 H1          7.5085   -0.2431   -1.2779 H         1 <0>         0.0000
     24 H2          5.7423   -3.8772    5.0075 H         1 <0>         0.0000
     25 H3          4.4501   -3.9417    3.7978 H         1 <0>         0.0000
     26 H4          4.1642   -3.1925    5.3800 H         1 <0>         0.0000
     27 H5          6.7922   -1.5734    5.6261 H         1 <0>         0.0000
     28 H6          6.2016   -0.1209    4.7985 H         1 <0>         0.0000
     29 H7          5.1564   -0.9697    5.9440 H         1 <0>         0.0000
     30 H8          2.8872   -4.1345   -2.0879 H         1 <0>         0.0000
     31 H9          2.1738   -5.7124   -1.7140 H         1 <0>         0.0000
     32 H10         3.5794   -5.1449   -0.8119 H         1 <0>         0.0000
     33 H11         0.7565   -4.7621    1.6349 H         1 <0>         0.0000
     34 H12         2.3282   -5.5113    1.3711 H         1 <0>         0.0000
     35 H13         0.9158   -6.0685    0.4541 H         1 <0>         0.0000
     36 H14        -0.3050   -3.3025   -0.2384 H         1 <0>         0.0000
     37 H15        -0.1179   -4.6740   -1.3329 H         1 <0>         0.0000
     38 H16         0.5457   -3.0900   -1.7676 H         1 <0>         0.0000
     39 H17        -0.9522   -0.7139    1.8767 H         1 <0>         0.0000
     40 H18        -0.0213    0.7135    1.3710 H         1 <0>         0.0000
     41 H19         0.4945   -0.2269    2.7876 H         1 <0>         0.0000
     42 H20         7.3251   -2.6069    3.3666 H         1 <0>         0.0000
     43 H21         6.7588   -1.1249    2.6110 H         1 <0>         0.0000
     44 H22         8.0241   -3.5011    1.1351 H         1 <0>         0.0000
     45 H23         6.8444   -3.7236   -0.1630 H         1 <0>         0.0000
     46 H24         5.7385   -3.9535    2.0094 H         1 <0>         0.0000
     47 H25         2.6549   -2.1876   -0.4426 H         1 <0>         0.0000
     48 H26         4.4913   -1.4577    3.6101 H         1 <0>         0.0000
     49 H27         0.8872   -0.9429   -0.0594 H         1 <0>         0.0000
     50 H28         3.8157   -4.1378    1.3829 H         1 <0>         0.0000
@<TRIPOS>BOND
     1    1   18 am
     2    1   20 2
     3    2   12 1
     4    2   17 am
     5    2   21 2
     6    3   13 1
     7    3   16 am
     8    3   22 2
     9    4   14 1
    10    5   14 1
    11    6   15 1
    12    7   15 1
    13    8   15 1
    14    9   16 1
    15   10   12 1
    16   10   14 1
    17   11   12 1
    18   11   18 1
    19   13   15 1
    20   13   17 1
    21   18   19 1
    22    1   23 1
    23    4   24 1
    24    4   25 1
    25    4   26 1
    26    5   27 1
    27    5   28 1
    28    5   29 1
    29    6   30 1
    30    6   31 1
    31    6   32 1
    32    7   33 1
    33    7   34 1
    34    7   35 1
    35    8   36 1
    36    8   37 1
    37    8   38 1
    38    9   39 1
    39    9   40 1
    40    9   41 1
    41   10   42 1
    42   10   43 1
    43   11   44 1
    44   11   45 1
    45   12   46 1
    46   13   47 1
    47   14   48 1
    48   16   49 1
    49   17   50 1
@<TRIPOS>MOLECULE
LIGAND
   50    49     0     0     0
SMALL
NO_CHARGES

@<TRIPOS>ATOM
      1 C1          9.2970   -4.1372    0.8354 C.2       1 <0>         0.0000
      2 C2          4.7609   -2.3304    1.0158 C.2       1 <0>         0.0000
      3 C3          1.9548   -1.6162    1.0446 C.2       1 <0>         0.0000
      4 C4          5.5916   -1.8934    4.5978 C.3       1 <0>         0.0000
      5 C5          7.0929    0.0222    4.0244 C.3       1 <0>         0.0000
      6 C6          2.0155   -5.3270   -0.2360 C.3       1 <0>         0.0000
      7 C7          1.1035   -4.4371    1.9036 C.3       1 <0>         0.0000
      8 C8          0.0778   -3.7458   -0.2707 C.3       1 <0>         0.0000
      9 C9          0.8348    0.5461    0.5966 C.3       1 <0>         0.0000
     10 C10         6.8665   -1.8668    2.3816 C.3       1 <0>         0.0000
     11 C11         6.8055   -3.7427    0.6616 C.3       1 <0>         0.0000
     12 C12         5.9953   -2.9363    1.6910 C.3       1 <0>         0.0000
     13 C13         2.4245   -2.8999    0.3599 C.3       1 <0>         0.0000
     14 C14         6.1374   -1.0321    3.4575 C.3       1 <0>         0.0000
     15 C15         1.4067   -4.0765    0.4357 C.3       1 <0>         0.0000
     16 N1          1.3343   -0.7384    0.1680 N.am      1 <0>         0.0000
     17 N2          3.6959   -3.2182    0.9688 N.am      1 <0>         0.0000
     18 N3          7.9912   -4.3422    1.2125 N.am      1 <0>         0.0000
     19 O1          7.7606   -5.2290    2.2460 O.3       1 <0>         0.0000
     20 O2          9.6863   -3.3900   -0.0572 O.2       1 <0>         0.0000
     21 O3          4.7482   -1.1914    0.5542 O.2       1 <0>         0.0000
     22 O4          2.1356   -1.3931    2.2407 O.2       1 <0>         0.0000
     23 H1         10.0234   -4.7251    1.4239 H         1 <0>         0.0000
     24 H2          6.4006   -2.4456    5.0885 H         1 <0>         0.0000
     25 H3          4.8609   -2.6219    4.2310 H         1 <0>         0.0000
     26 H4          5.1097   -1.2817    5.3659 H         1 <0>         0.0000
     27 H5          7.9623   -0.4436    4.5008 H         1 <0>         0.0000
     28 H6          7.4545    0.6861    3.2321 H         1 <0>         0.0000
     29 H7          6.5886    0.6429    4.7727 H         1 <0>         0.0000
     30 H8          2.2541   -5.1329   -1.2877 H         1 <0>         0.0000
     31 H9          1.3305   -6.1810   -0.1982 H         1 <0>         0.0000
     32 H10         2.9425   -5.6329    0.2628 H         1 <0>         0.0000
     33 H11         0.6668   -3.5850    2.4375 H         1 <0>         0.0000
     34 H12         2.0104   -4.7234    2.4466 H         1 <0>         0.0000
     35 H13         0.3913   -5.2673    1.9681 H         1 <0>         0.0000
     36 H14        -0.3923   -2.8611    0.1746 H         1 <0>         0.0000
     37 H15        -0.6390   -4.5698   -0.1902 H         1 <0>         0.0000
     38 H16         0.2276   -3.5306   -1.3336 H         1 <0>         0.0000
     39 H17        -0.2038    0.4548    0.9249 H         1 <0>         0.0000
     40 H18         0.8817    1.2638   -0.2270 H         1 <0>         0.0000
     41 H19         1.4345    0.9267    1.4277 H         1 <0>         0.0000
     42 H20         7.7322   -2.3581    2.8457 H         1 <0>         0.0000
     43 H21         7.2705   -1.1813    1.6250 H         1 <0>         0.0000
     44 H22         6.1970   -4.5521    0.2444 H         1 <0>         0.0000
     45 H23         7.1292   -3.1080   -0.1699 H         1 <0>         0.0000
     46 H24         5.6479   -3.6501    2.4472 H         1 <0>         0.0000
     47 H25         2.6512   -2.6760   -0.6903 H         1 <0>         0.0000
     48 H26         5.2955   -0.5008    2.9986 H         1 <0>         0.0000
     49 H27         1.2283   -1.0078   -0.8054 H         1 <0>         0.0000
     50 H28         3.8157   -4.1378    1.3829 H         1 <0>         0.0000
@<TRIPOS>BOND
     1    1   18 am
     2    1   20 2
     3    2   12 1
     4    2   17 am
     5    2   21 2
     6    3   13 1
     7    3   16 am
     8    3   22 2
     9    4   14 1
    10    5   14 1
    11    6   15 1
    12    7   15 1
    13    8   15 1
    14    9   16 1
    15   10   12 1
    16   10   14 1
    17   11   12 1
    18   11   18 1
    19   13   15 1
    20   13   17 1
    21   18   19 1
    22    1   23 1
    23    4   24 1
    24    4   25 1
    25    4   26 1
    26    5   27 1
    27    5   28 1
    28    5   29 1
    29    6   30 1
    30    6   31 1
    31    6   32 1
    32    7   33 1
    33    7   34 1
    34    7   35 1
    35    8   36 1
    36    8   37 1
    37    8   38 1
    38    9   39 1
    39    9   40 1
    40    9   41 1
    41   10   42 1
    42   10   43 1
    43   11   44 1
    44   11   45 1
    45   12   46 1
    46   13   47 1
    47   14   48 1
    48   16   49 1
    49   17   50 1
@<TRIPOS>MOLECULE
LIGAND
   50    49     0     0     0
SMALL
NO_CHARGES

@<TRIPOS>ATOM
      1 C1          6.8958   -1.5680    4.6682 C.2       1 <0>         0.0000
      2 C2          4.7609   -2.3304    1.0158 C.2       1 <0>         0.0000
      3 C3          1.6238   -2.1763    1.4428 C.2       1 <0>         0.0000
      4 C4          7.9668   -2.9805   -0.7195 C.3       1 <0>         0.0000
      5 C5          7.2752   -5.3485   -1.1277 C.3       1 <0>         0.0000
      6 C6          2.6382   -4.8237   -1.2732 C.3       1 <0>         0.0000
      7 C7          1.4139   -5.1834    0.8654 C.3       1 <0>         0.0000
      8 C8          0.3871   -3.7862   -0.9377 C.3       1 <0>         0.0000
      9 C9          1.1427   -2.2044    3.8715 C.3       1 <0>         0.0000
     10 C10         6.4903   -4.2069    0.9698 C.3       1 <0>         0.0000
     11 C11         5.6912   -3.2135    3.1734 C.3       1 <0>         0.0000
     12 C12         5.9953   -2.9363    1.6910 C.3       1 <0>         0.0000
     13 C13         2.4245   -2.8999    0.3599 C.3       1 <0>         0.0000
     14 C14         6.8518   -4.0083   -0.5189 C.3       1 <0>         0.0000
     15 C15         1.7114   -4.1488   -0.2382 C.3       1 <0>         0.0000
     16 N1          1.8198   -2.7177    2.7048 N.am      1 <0>         0.0000
     17 N2          3.6959   -3.2182    0.9688 N.am      1 <0>         0.0000
     18 N3          5.7903   -2.0436    4.0042 N.am      1 <0>         0.0000
     19 O1          4.6156   -1.3288    4.1337 O.3       1 <0>         0.0000
     20 O2          8.0156   -2.0707    4.6671 O.2       1 <0>         0.0000
     21 O3          4.7482   -1.1914    0.5542 O.2       1 <0>         0.0000
     22 O4          0.8744   -1.2316    1.1999 O.2       1 <0>         0.0000
     23 H1          6.7023   -0.6439    5.2411 H         1 <0>         0.0000
     24 H2          8.8753   -3.2848   -0.1883 H         1 <0>         0.0000
     25 H3          7.6713   -1.9951   -0.3441 H         1 <0>         0.0000
     26 H4          8.2323   -2.8793   -1.7758 H         1 <0>         0.0000
     27 H5          8.1599   -5.7527   -0.6240 H         1 <0>         0.0000
     28 H6          6.4698   -6.0859   -1.0440 H         1 <0>         0.0000
     29 H7          7.5125   -5.2358   -2.1909 H         1 <0>         0.0000
     30 H8          2.8872   -4.1345   -2.0879 H         1 <0>         0.0000
     31 H9          2.1738   -5.7124   -1.7140 H         1 <0>         0.0000
     32 H10         3.5794   -5.1449   -0.8119 H         1 <0>         0.0000
     33 H11         0.7565   -4.7621    1.6349 H         1 <0>         0.0000
     34 H12         2.3282   -5.5113    1.3711 H         1 <0>         0.0000
     35 H13         0.9158   -6.0685    0.4541 H         1 <0>         0.0000
     36 H14        -0.3050   -3.3025   -0.2384 H         1 <0>         0.0000
     37 H15        -0.1179   -4.6740   -1.3329 H         1 <0>         0.0000
     38 H16         0.5457   -3.0900   -1.7676 H         1 <0>         0.0000
     39 H17         1.7401   -1.4157    4.3360 H         1 <0>         0.0000
     40 H18         0.9874   -3.0042    4.6007 H         1 <0>         0.0000
     41 H19         0.1698   -1.7909    3.5925 H         1 <0>         0.0000
     42 H20         7.3727   -4.5944    1.4964 H         1 <0>         0.0000
     43 H21         5.7222   -4.9884    1.0394 H         1 <0>         0.0000
     44 H22         4.6761   -3.6079    3.2888 H         1 <0>         0.0000
     45 H23         6.3842   -3.9541    3.5861 H         1 <0>         0.0000
     46 H24         6.7931   -2.1847    1.6686 H         1 <0>         0.0000
     47 H25         2.6549   -2.1876   -0.4426 H         1 <0>         0.0000
     48 H26         5.9671   -3.6628   -1.0661 H         1 <0>         0.0000
     49 H27         2.4595   -3.4993    2.8111 H         1 <0>         0.0000
     50 H28         3.8157   -4.1378    1.3829 H         1 <0>         0.0000
@<TRIPOS>BOND
     1    1   18 am
     2    1   20 2
     3    2   12 1
     4    2   17 am
     5    2   21 2
     6    3   13 1
     7    3   16 am
     8    3   22 2
     9    4   14 1
    10    5   14 1
    11    6   15 1
    12    7   15 1
    13    8   15 1
    14    9   16 1
    15   10   12 1
    16   10   14 1
    17   11   12 1
    18   11   18 1
    19   13   15 1
    20   13   17 1
    21   18   19 1
    22    1   23 1
    23    4   24 1
    24    4   25 1
    25    4   26 1
    26    5   27 1
    27    5   28 1
    28    5   29 1
    29    6   30 1
    30    6   31 1
    31    6   32 1
    32    7   33 1
    33    7   34 1
    34    7   35 1
    35    8   36 1
    36    8   37 1
    37    8   38 1
    38    9   39 1
    39    9   40 1
    40    9   41 1
    41   10   42 1
    42   10   43 1
    43   11   44 1
    44   11   45 1
    45   12   46 1
    46   13   47 1
    47   14   48 1
    48   16   49 1
    49   17   50 1
@<TRIPOS>MOLECULE
LIGAND
   50    49     0     0     0
SMALL
NO_CHARGES

@<TRIPOS>ATOM
      1 C1          8.0812   -5.2529    2.2381 C.2       1 <0>         0.0000
      2 C2          4.7609   -2.3304    1.0158 C.2       1 <0>         0.0000
      3 C3          1.9548   -1.6162    1.0446 C.2       1 <0>         0.0000
      4 C4          5.5916   -1.8934    4.5978 C.3       1 <0>         0.0000
      5 C5          7.0929    0.0222    4.0244 C.3       1 <0>         0.0000
      6 C6          2.0155   -5.3270   -0.2360 C.3       1 <0>         0.0000
      7 C7          1.1035   -4.4371    1.9036 C.3       1 <0>         0.0000
      8 C8          0.0778   -3.7458   -0.2707 C.3       1 <0>         0.0000
      9 C9          0.8348    0.5461    0.5966 C.3       1 <0>         0.0000
     10 C10         6.8665   -1.8668    2.3816 C.3       1 <0>         0.0000
     11 C11         6.8055   -3.7427    0.6616 C.3       1 <0>         0.0000
     12 C12         5.9953   -2.9363    1.6910 C.3       1 <0>         0.0000
     13 C13         2.4245   -2.8999    0.3599 C.3       1 <0>         0.0000
     14 C14         6.1374   -1.0321    3.4575 C.3       1 <0>         0.0000
     15 C15         1.4067   -4.0765    0.4357 C.3       1 <0>         0.0000
     16 N1          1.3343   -0.7384    0.1680 N.am      1 <0>         0.0000
     17 N2          3.6959   -3.2182    0.9688 N.am      1 <0>         0.0000
     18 N3          7.9912   -4.3422    1.2125 N.am      1 <0>         0.0000
     19 O1          9.1704   -3.9351    0.6197 O.3       1 <0>         0.0000
     20 O2          7.1439   -5.7230    2.8761 O.2       1 <0>         0.0000
     21 O3          4.7482   -1.1914    0.5542 O.2       1 <0>         0.0000
     22 O4          2.1356   -1.3931    2.2407 O.2       1 <0>         0.0000
     23 H1          9.1177   -5.5563    2.4686 H         1 <0>         0.0000
     24 H2          6.4006   -2.4456    5.0885 H         1 <0>         0.0000
     25 H3          4.8609   -2.6219    4.2310 H         1 <0>         0.0000
     26 H4          5.1097   -1.2817    5.3659 H         1 <0>         0.0000
     27 H5          7.9623   -0.4436    4.5008 H         1 <0>         0.0000
     28 H6          7.4545    0.6861    3.2321 H         1 <0>         0.0000
     29 H7          6.5886    0.6429    4.7727 H         1 <0>         0.0000
     30 H8          2.2541   -5.1329   -1.2877 H         1 <0>         0.0000
     31 H9          1.3305   -6.1810   -0.1982 H         1 <0>         0.0000
     32 H10         2.9425   -5.6329    0.2628 H         1 <0>         0.0000
     33 H11         0.6668   -3.5850    2.4375 H         1 <0>         0.0000
     34 H12         2.0104   -4.7234    2.4466 H         1 <0>         0.0000
     35 H13         0.3913   -5.2673    1.9681 H         1 <0>         0.0000
     36 H14        -0.3923   -2.8611    0.1746 H         1 <0>         0.0000
     37 H15        -0.6390   -4.5698   -0.1902 H         1 <0>         0.0000
     38 H16         0.2276   -3.5306   -1.3336 H         1 <0>         0.0000
     39 H17        -0.2038    0.4548    0.9249 H         1 <0>         0.0000
     40 H18         0.8817    1.2638   -0.2270 H         1 <0>         0.0000
     41 H19         1.4345    0.9267    1.4277 H         1 <0>         0.0000
     42 H20         7.7322   -2.3581    2.8457 H         1 <0>         0.0000
     43 H21         7.2705   -1.1813    1.6250 H         1 <0>         0.0000
     44 H22         6.1970   -4.5521    0.2444 H         1 <0>         0.0000
     45 H23         7.1292   -3.1080   -0.1699 H         1 <0>         0.0000
     46 H24         5.6479   -3.6501    2.4472 H         1 <0>         0.0000
     47 H25         2.6512   -2.6760   -0.6903 H         1 <0>         0.0000
     48 H26         5.2955   -0.5008    2.9986 H         1 <0>         0.0000
     49 H27         1.2283   -1.0078   -0.8054 H         1 <0>         0.0000
     50 H28         3.8157   -4.1378    1.3829 H         1 <0>         0.0000
@<TRIPOS>BOND
     1    1   18 am
     2    1   20 2
     3    2   12 1
     4    2   17 am
     5    2   21 2
     6    3   13 1
     7    3   16 am
     8    3   22 2
     9    4   14 1
    10    5   14 1
    11    6   15 1
    12    7   15 1
    13    8   15 1
    14    9   16 1
    15   10   12 1
    16   10   14 1
    17   11   12 1
    18   11   18 1
    19   13   15 1
    20   13   17 1
    21   18   19 1
    22    1   23 1
    23    4   24 1
    24    4   25 1
    25    4   26 1
    26    5   27 1
    27    5   28 1
    28    5   29 1
    29    6   30 1
    30    6   31 1
    31    6   32 1
    32    7   33 1
    33    7   34 1
    34    7   35 1
    35    8   36 1
    36    8   37 1
    37    8   38 1
    38    9   39 1
    39    9   40 1
    40    9   41 1
    41   10   42 1
    42   10   43 1
    43   11   44 1
    44   11   45 1
    45   12   46 1
    46   13   47 1
    47   14   48 1
    48   16   49 1
    49   17   50 1
@<TRIPOS>MOLECULE
LIGAND
   50    49     0     0     0
SMALL
NO_CHARGES

@<TRIPOS>ATOM
      1 C1          7.5069   -5.4885    0.0335 C.2       1 <0>         0.0000
      2 C2          4.7609   -2.3304    1.0158 C.2       1 <0>         0.0000
      3 C3          1.4114   -2.9063    1.5049 C.2       1 <0>         0.0000
      4 C4          4.8998   -3.3220    4.5808 C.3       1 <0>         0.0000
      5 C5          5.9126   -1.1117    5.1647 C.3       1 <0>         0.0000
      6 C6          2.6765   -3.3019   -2.1277 C.3       1 <0>         0.0000
      7 C7          2.6544   -5.2554   -0.5834 C.3       1 <0>         0.0000
      8 C8          0.5425   -3.9869   -1.0173 C.3       1 <0>         0.0000
      9 C9         -0.5781   -1.7107    2.3670 C.3       1 <0>         0.0000
     10 C10         6.4405   -2.1272    2.9267 C.3       1 <0>         0.0000
     11 C11         7.1342   -3.0688    0.6654 C.3       1 <0>         0.0000
     12 C12         5.9953   -2.9363    1.6910 C.3       1 <0>         0.0000
     13 C13         2.4245   -2.8999    0.3599 C.3       1 <0>         0.0000
     14 C14         5.3645   -1.9750    4.0244 C.3       1 <0>         0.0000
     15 C15         2.0646   -3.8508   -0.8201 C.3       1 <0>         0.0000
     16 N1          0.4604   -1.9038    1.3835 N.am      1 <0>         0.0000
     17 N2          3.6959   -3.2182    0.9688 N.am      1 <0>         0.0000
     18 N3          7.0083   -4.2255   -0.1801 N.am      1 <0>         0.0000
     19 O1          6.2940   -4.0132   -1.3430 O.3       1 <0>         0.0000
     20 O2          8.1609   -5.8564    1.0048 O.2       1 <0>         0.0000
     21 O3          4.7482   -1.1914    0.5542 O.2       1 <0>         0.0000
     22 O4          1.4623   -3.7076    2.4368 O.2       1 <0>         0.0000
     23 H1          7.2671   -6.1999   -0.7765 H         1 <0>         0.0000
     24 H2          5.7423   -3.8772    5.0075 H         1 <0>         0.0000
     25 H3          4.4501   -3.9417    3.7978 H         1 <0>         0.0000
     26 H4          4.1642   -3.1925    5.3800 H         1 <0>         0.0000
     27 H5          6.7922   -1.5734    5.6261 H         1 <0>         0.0000
     28 H6          6.2016   -0.1209    4.7985 H         1 <0>         0.0000
     29 H7          5.1564   -0.9697    5.9440 H         1 <0>         0.0000
     30 H8          2.2940   -2.2998   -2.3517 H         1 <0>         0.0000
     31 H9          2.4502   -3.9477   -2.9831 H         1 <0>         0.0000
     32 H10         3.7681   -3.2311   -2.0551 H         1 <0>         0.0000
     33 H11         2.2564   -5.7011    0.3358 H         1 <0>         0.0000
     34 H12         3.7440   -5.2254   -0.4780 H         1 <0>         0.0000
     35 H13         2.4105   -5.9315   -1.4105 H         1 <0>         0.0000
     36 H14         0.0636   -4.3749   -0.1106 H         1 <0>         0.0000
     37 H15         0.3004   -4.6763   -1.8330 H         1 <0>         0.0000
     38 H16         0.0759   -3.0219   -1.2405 H         1 <0>         0.0000
     39 H17        -1.4589   -2.3023    2.1044 H         1 <0>         0.0000
     40 H18        -0.8634   -0.6562    2.4133 H         1 <0>         0.0000
     41 H19        -0.2264   -2.0222    3.3542 H         1 <0>         0.0000
     42 H20         7.3251   -2.6069    3.3666 H         1 <0>         0.0000
     43 H21         6.7588   -1.1249    2.6110 H         1 <0>         0.0000
     44 H22         7.1645   -2.1910    0.0112 H         1 <0>         0.0000
     45 H23         8.1063   -3.1455    1.1636 H         1 <0>         0.0000
     46 H24         5.7385   -3.9535    2.0094 H         1 <0>         0.0000
     47 H25         2.5279   -1.8729   -0.0129 H         1 <0>         0.0000
     48 H26         4.4913   -1.4577    3.6101 H         1 <0>         0.0000
     49 H27         0.4960   -1.2867    0.5777 H         1 <0>         0.0000
     50 H28         3.8157   -4.1378    1.3829 H         1 <0>         0.0000
@<TRIPOS>BOND
     1    1   18 am
     2    1   20 2
     3    2   12 1
     4    2   17 am
     5    2   21 2
     6    3   13 1
     7    3   16 am
     8    3   22 2
     9    4   14 1
    10    5   14 1
    11    6   15 1
    12    7   15 1
    13    8   15 1
    14    9   16 1
    15   10   12 1
    16   10   14 1
    17   11   12 1
    18   11   18 1
    19   13   15 1
    20   13   17 1
    21   18   19 1
    22    1   23 1
    23    4   24 1
    24    4   25 1
    25    4   26 1
    26    5   27 1
    27    5   28 1
    28    5   29 1
    29    6   30 1
    30    6   31 1
    31    6   32 1
    32    7   33 1
    33    7   34 1
    34    7   35 1
    35    8   36 1
    36    8   37 1
    37    8   38 1
    38    9   39 1
    39    9   40 1
    40    9   41 1
    41   10   42 1
    42   10   43 1
    43   11   44 1
    44   11   45 1
    45   12   46 1
    46   13   47 1
    47   14   48 1
    48   16   49 1
    49   17   50 1
@<TRIPOS>MOLECULE
LIGAND
   50    49     0     0     0
SMALL
NO_CHARGES

@<TRIPOS>ATOM
      1 C1          9.6073   -2.8771    1.8502 C.2       1 <0>         0.0000
      2 C2          4.7609   -2.3304    1.0158 C.2       1 <0>         0.0000
      3 C3          1.4114   -2.9063    1.5049 C.2       1 <0>         0.0000
      4 C4          5.4286   -5.0551    3.9022 C.3       1 <0>         0.0000
      5 C5          5.1681   -3.1669    5.5205 C.3       1 <0>         0.0000
      6 C6          3.1857   -3.8003   -1.8813 C.3       1 <0>         0.0000
      7 C7          1.9543   -5.3076   -0.3278 C.3       1 <0>         0.0000
      8 C8          0.7370   -3.4626   -1.4991 C.3       1 <0>         0.0000
      9 C9         -0.5781   -1.7107    2.3670 C.3       1 <0>         0.0000
     10 C10         6.0212   -2.6662    3.2096 C.3       1 <0>         0.0000
     11 C11         7.2695   -2.4142    1.0053 C.3       1 <0>         0.0000
     12 C12         5.9953   -2.9363    1.6910 C.3       1 <0>         0.0000
     13 C13         2.4245   -2.8999    0.3599 C.3       1 <0>         0.0000
     14 C14         5.0884   -3.5706    4.0452 C.3       1 <0>         0.0000
     15 C15         2.0646   -3.8508   -0.8201 C.3       1 <0>         0.0000
     16 N1          0.4604   -1.9038    1.3835 N.am      1 <0>         0.0000
     17 N2          3.6959   -3.2182    0.9688 N.am      1 <0>         0.0000
     18 N3          8.4249   -3.2358    1.2479 N.am      1 <0>         0.0000
     19 O1          8.3047   -4.5409    0.8122 O.3       1 <0>         0.0000
     20 O2         10.5755   -3.6069    2.0413 O.2       1 <0>         0.0000
     21 O3          4.7482   -1.1914    0.5542 O.2       1 <0>         0.0000
     22 O4          1.4623   -3.7076    2.4368 O.2       1 <0>         0.0000
     23 H1          9.6351   -1.8214    2.1732 H         1 <0>         0.0000
     24 H2          6.4596   -5.2491    4.2175 H         1 <0>         0.0000
     25 H3          5.3256   -5.3883    2.8641 H         1 <0>         0.0000
     26 H4          4.7804   -5.6761    4.5273 H         1 <0>         0.0000
     27 H5          6.1838   -3.2884    5.9121 H         1 <0>         0.0000
     28 H6          4.8754   -2.1200    5.6540 H         1 <0>         0.0000
     29 H7          4.4947   -3.7797    6.1290 H         1 <0>         0.0000
     30 H8          3.3133   -2.7845   -2.2720 H         1 <0>         0.0000
     31 H9          2.9723   -4.4622   -2.7277 H         1 <0>         0.0000
     32 H10         4.1465   -4.1154   -1.4578 H         1 <0>         0.0000
     33 H11         1.1705   -5.4095    0.4319 H         1 <0>         0.0000
     34 H12         2.8879   -5.6535    0.1281 H         1 <0>         0.0000
     35 H13         1.7055   -5.9859   -1.1517 H         1 <0>         0.0000
     36 H14        -0.0909   -3.4848   -0.7807 H         1 <0>         0.0000
     37 H15         0.4812   -4.1517   -2.3109 H         1 <0>         0.0000
     38 H16         0.7762   -2.4505   -1.9146 H         1 <0>         0.0000
     39 H17        -1.4589   -2.3023    2.1044 H         1 <0>         0.0000
     40 H18        -0.8634   -0.6562    2.4133 H         1 <0>         0.0000
     41 H19        -0.2264   -2.0222    3.3542 H         1 <0>         0.0000
     42 H20         7.0493   -2.7891    3.5757 H         1 <0>         0.0000
     43 H21         5.7503   -1.6191    3.3985 H         1 <0>         0.0000
     44 H22         7.1283   -2.3661   -0.0797 H         1 <0>         0.0000
     45 H23         7.5195   -1.4064    1.3527 H         1 <0>         0.0000
     46 H24         5.9704   -4.0198    1.5260 H         1 <0>         0.0000
     47 H25         2.5279   -1.8729   -0.0129 H         1 <0>         0.0000
     48 H26         4.0519   -3.4254    3.7195 H         1 <0>         0.0000
     49 H27         0.4960   -1.2867    0.5777 H         1 <0>         0.0000
     50 H28         3.8157   -4.1378    1.3829 H         1 <0>         0.0000
@<TRIPOS>BOND
     1    1   18 am
     2    1   20 2
     3    2   12 1
     4    2   17 am
     5    2   21 2
     6    3   13 1
     7    3   16 am
     8    3   22 2
     9    4   14 1
    10    5   14 1
    11    6   15 1
    12    7   15 1
    13    8   15 1
    14    9   16 1
    15   10   12 1
    16   10   14 1
    17   11   12 1
    18   11   18 1
    19   13   15 1
    20   13   17 1
    21   18   19 1
    22    1   23 1
    23    4   24 1
    24    4   25 1
    25    4   26 1
    26    5   27 1
    27    5   28 1
    28    5   29 1
    29    6   30 1
    30    6   31 1
    31    6   32 1
    32    7   33 1
    33    7   34 1
    34    7   35 1
    35    8   36 1
    36    8   37 1
    37    8   38 1
    38    9   39 1
    39    9   40 1
    40    9   41 1
    41   10   42 1
    42   10   43 1
    43   11   44 1
    44   11   45 1
    45   12   46 1
    46   13   47 1
    47   14   48 1
    48   16   49 1
    49   17   50 1
@<TRIPOS>MOLECULE
LIGAND
   50    49     0     0     0
SMALL
NO_CHARGES

@<TRIPOS>ATOM
      1 C1          8.0812   -5.2529    2.2381 C.2       1 <0>         0.0000
      2 C2          4.7609   -2.3304    1.0158 C.2       1 <0>         0.0000
      3 C3          1.3743   -3.6105    1.2141 C.2       1 <0>         0.0000
      4 C4          5.5916   -1.8934    4.5978 C.3       1 <0>         0.0000
      5 C5          7.0929    0.0222    4.0244 C.3       1 <0>         0.0000
      6 C6          3.5112   -2.5312   -1.8976 C.3       1 <0>         0.0000
      7 C7          2.5798   -4.7765   -1.3563 C.3       1 <0>         0.0000
      8 C8          1.0336   -2.8618   -1.8044 C.3       1 <0>         0.0000
      9 C9         -0.8899   -3.3247    2.1744 C.3       1 <0>         0.0000
     10 C10         6.8665   -1.8668    2.3816 C.3       1 <0>         0.0000
     11 C11         6.8055   -3.7427    0.6616 C.3       1 <0>         0.0000
     12 C12         5.9953   -2.9363    1.6910 C.3       1 <0>         0.0000
     13 C13         2.4245   -2.8999    0.3599 C.3       1 <0>         0.0000
     14 C14         6.1374   -1.0321    3.4575 C.3       1 <0>         0.0000
     15 C15         2.3718   -3.2623   -1.1540 C.3       1 <0>         0.0000
     16 N1          0.2223   -2.8565    1.3827 N.am      1 <0>         0.0000
     17 N2          3.6959   -3.2182    0.9688 N.am      1 <0>         0.0000
     18 N3          7.9912   -4.3422    1.2125 N.am      1 <0>         0.0000
     19 O1          9.1704   -3.9351    0.6197 O.3       1 <0>         0.0000
     20 O2          9.1135   -5.7450    2.6838 O.2       1 <0>         0.0000
     21 O3          4.7482   -1.1914    0.5542 O.2       1 <0>         0.0000
     22 O4          1.5569   -4.7218    1.7089 O.2       1 <0>         0.0000
     23 H1          7.1023   -5.5337    2.6655 H         1 <0>         0.0000
     24 H2          6.4006   -2.4456    5.0885 H         1 <0>         0.0000
     25 H3          4.8609   -2.6219    4.2310 H         1 <0>         0.0000
     26 H4          5.1097   -1.2817    5.3659 H         1 <0>         0.0000
     27 H5          7.9623   -0.4436    4.5008 H         1 <0>         0.0000
     28 H6          7.4545    0.6861    3.2321 H         1 <0>         0.0000
     29 H7          6.5886    0.6429    4.7727 H         1 <0>         0.0000
     30 H8          3.4182   -1.4447   -1.7906 H         1 <0>         0.0000
     31 H9          3.5120   -2.7653   -2.9677 H         1 <0>         0.0000
     32 H10         4.4918   -2.8203   -1.5020 H         1 <0>         0.0000
     33 H11         1.7979   -5.3538   -0.8491 H         1 <0>         0.0000
     34 H12         3.5395   -5.1121   -0.9494 H         1 <0>         0.0000
     35 H13         2.5489   -5.0416   -2.4191 H         1 <0>         0.0000
     36 H14         0.1926   -3.3589   -1.3070 H         1 <0>         0.0000
     37 H15         0.9978   -3.1431   -2.8622 H         1 <0>         0.0000
     38 H16         0.8573   -1.7835   -1.7352 H         1 <0>         0.0000
     39 H17        -1.5882   -3.8849    1.5471 H         1 <0>         0.0000
     40 H18        -1.4189   -2.4783    2.6208 H         1 <0>         0.0000
     41 H19        -0.5348   -3.9781    2.9759 H         1 <0>         0.0000
     42 H20         7.7322   -2.3581    2.8457 H         1 <0>         0.0000
     43 H21         7.2705   -1.1813    1.6250 H         1 <0>         0.0000
     44 H22         6.1970   -4.5521    0.2444 H         1 <0>         0.0000
     45 H23         7.1292   -3.1080   -0.1699 H         1 <0>         0.0000
     46 H24         5.6479   -3.6501    2.4472 H         1 <0>         0.0000
     47 H25         2.3043   -1.8161    0.4837 H         1 <0>         0.0000
     48 H26         5.2955   -0.5008    2.9986 H         1 <0>         0.0000
     49 H27         0.1595   -1.9470    0.9352 H         1 <0>         0.0000
     50 H28         3.8157   -4.1378    1.3829 H         1 <0>         0.0000
@<TRIPOS>BOND
     1    1   18 am
     2    1   20 2
     3    2   12 1
     4    2   17 am
     5    2   21 2
     6    3   13 1
     7    3   16 am
     8    3   22 2
     9    4   14 1
    10    5   14 1
    11    6   15 1
    12    7   15 1
    13    8   15 1
    14    9   16 1
    15   10   12 1
    16   10   14 1
    17   11   12 1
    18   11   18 1
    19   13   15 1
    20   13   17 1
    21   18   19 1
    22    1   23 1
    23    4   24 1
    24    4   25 1
    25    4   26 1
    26    5   27 1
    27    5   28 1
    28    5   29 1
    29    6   30 1
    30    6   31 1
    31    6   32 1
    32    7   33 1
    33    7   34 1
    34    7   35 1
    35    8   36 1
    36    8   37 1
    37    8   38 1
    38    9   39 1
    39    9   40 1
    40    9   41 1
    41   10   42 1
    42   10   43 1
    43   11   44 1
    44   11   45 1
    45   12   46 1
    46   13   47 1
    47   14   48 1
    48   16   49 1
    49   17   50 1
@<TRIPOS>MOLECULE
LIGAND
   50    49     0     0     0
SMALL
NO_CHARGES

@<TRIPOS>ATOM
      1 C1          7.5576   -2.3672    4.6544 C.2       1 <0>         0.0000
      2 C2          4.7609   -2.3304    1.0158 C.2       1 <0>         0.0000
      3 C3          1.9548   -1.6162    1.0446 C.2       1 <0>         0.0000
      4 C4          7.9668   -2.9805   -0.7195 C.3       1 <0>         0.0000
      5 C5          7.2752   -5.3485   -1.1277 C.3       1 <0>         0.0000
      6 C6          2.0155   -5.3270   -0.2360 C.3       1 <0>         0.0000
      7 C7          1.1035   -4.4371    1.9036 C.3       1 <0>         0.0000
      8 C8          0.0778   -3.7458   -0.2707 C.3       1 <0>         0.0000
      9 C9          0.8348    0.5461    0.5966 C.3       1 <0>         0.0000
     10 C10         6.4903   -4.2069    0.9698 C.3       1 <0>         0.0000
     11 C11         5.6912   -3.2135    3.1734 C.3       1 <0>         0.0000
     12 C12         5.9953   -2.9363    1.6910 C.3       1 <0>         0.0000
     13 C13         2.4245   -2.8999    0.3599 C.3       1 <0>         0.0000
     14 C14         6.8518   -4.0083   -0.5189 C.3       1 <0>         0.0000
     15 C15         1.4067   -4.0765    0.4357 C.3       1 <0>         0.0000
     16 N1          1.3343   -0.7384    0.1680 N.am      1 <0>         0.0000
     17 N2          3.6959   -3.2182    0.9688 N.am      1 <0>         0.0000
     18 N3          6.8729   -3.3510    3.9817 N.am      1 <0>         0.0000
     19 O1          7.3583   -4.6406    4.0766 O.3       1 <0>         0.0000
     20 O2          7.2727   -1.1736    4.6825 O.2       1 <0>         0.0000
     21 O3          4.7482   -1.1914    0.5542 O.2       1 <0>         0.0000
     22 O4          2.1356   -1.3931    2.2407 O.2       1 <0>         0.0000
     23 H1          8.4389   -2.7411    5.2052 H         1 <0>         0.0000
     24 H2          8.8753   -3.2848   -0.1883 H         1 <0>         0.0000
     25 H3          7.6713   -1.9951   -0.3441 H         1 <0>         0.0000
     26 H4          8.2323   -2.8793   -1.7758 H         1 <0>         0.0000
     27 H5          8.1599   -5.7527   -0.6240 H         1 <0>         0.0000
     28 H6          6.4698   -6.0859   -1.0440 H         1 <0>         0.0000
     29 H7          7.5125   -5.2358   -2.1909 H         1 <0>         0.0000
     30 H8          2.2541   -5.1329   -1.2877 H         1 <0>         0.0000
     31 H9          1.3305   -6.1810   -0.1982 H         1 <0>         0.0000
     32 H10         2.9425   -5.6329    0.2628 H         1 <0>         0.0000
     33 H11         0.6668   -3.5850    2.4375 H         1 <0>         0.0000
     34 H12         2.0104   -4.7234    2.4466 H         1 <0>         0.0000
     35 H13         0.3913   -5.2673    1.9681 H         1 <0>         0.0000
     36 H14        -0.3923   -2.8611    0.1746 H         1 <0>         0.0000
     37 H15        -0.6390   -4.5698   -0.1902 H         1 <0>         0.0000
     38 H16         0.2276   -3.5306   -1.3336 H         1 <0>         0.0000
     39 H17        -0.2038    0.4548    0.9249 H         1 <0>         0.0000
     40 H18         0.8817    1.2638   -0.2270 H         1 <0>         0.0000
     41 H19         1.4345    0.9267    1.4277 H         1 <0>         0.0000
     42 H20         7.3727   -4.5944    1.4964 H         1 <0>         0.0000
     43 H21         5.7222   -4.9884    1.0394 H         1 <0>         0.0000
     44 H22         5.0986   -2.3982    3.6018 H         1 <0>         0.0000
     45 H23         5.1177   -4.1388    3.2917 H         1 <0>         0.0000
     46 H24         6.7931   -2.1847    1.6686 H         1 <0>         0.0000
     47 H25         2.6512   -2.6760   -0.6903 H         1 <0>         0.0000
     48 H26         5.9671   -3.6628   -1.0661 H         1 <0>         0.0000
     49 H27         1.2283   -1.0078   -0.8054 H         1 <0>         0.0000
     50 H28         3.8157   -4.1378    1.3829 H         1 <0>         0.0000
@<TRIPOS>BOND
     1    1   18 am
     2    1   20 2
     3    2   12 1
     4    2   17 am
     5    2   21 2
     6    3   13 1
     7    3   16 am
     8    3   22 2
     9    4   14 1
    10    5   14 1
    11    6   15 1
    12    7   15 1
    13    8   15 1
    14    9   16 1
    15   10   12 1
    16   10   14 1
    17   11   12 1
    18   11   18 1
    19   13   15 1
    20   13   17 1
    21   18   19 1
    22    1   23 1
    23    4   24 1
    24    4   25 1
    25    4   26 1
    26    5   27 1
    27    5   28 1
    28    5   29 1
    29    6   30 1
    30    6   31 1
    31    6   32 1
    32    7   33 1
    33    7   34 1
    34    7   35 1
    35    8   36 1
    36    8   37 1
    37    8   38 1
    38    9   39 1
    39    9   40 1
    40    9   41 1
    41   10   42 1
    42   10   43 1
    43   11   44 1
    44   11   45 1
    45   12   46 1
    46   13   47 1
    47   14   48 1
    48   16   49 1
    49   17   50 1
@<TRIPOS>MOLECULE
LIGAND
   50    49     0     0     0
SMALL
NO_CHARGES

@<TRIPOS>ATOM
      1 C1          9.5863   -3.0500    1.2820 C.2       1 <0>         0.0000
      2 C2          4.7609   -2.3304    1.0158 C.2       1 <0>         0.0000
      3 C3          1.3743   -3.6105    1.2141 C.2       1 <0>         0.0000
      4 C4          5.6212   -3.8274    4.6518 C.3       1 <0>         0.0000
      5 C5          6.1055   -1.4698    5.3297 C.3       1 <0>         0.0000
      6 C6          3.5112   -2.5312   -1.8976 C.3       1 <0>         0.0000
      7 C7          2.5798   -4.7765   -1.3563 C.3       1 <0>         0.0000
      8 C8          1.0336   -2.8618   -1.8044 C.3       1 <0>         0.0000
      9 C9         -0.8899   -3.3247    2.1744 C.3       1 <0>         0.0000
     10 C10         6.4405   -2.1272    2.9267 C.3       1 <0>         0.0000
     11 C11         7.1342   -3.0688    0.6654 C.3       1 <0>         0.0000
     12 C12         5.9953   -2.9363    1.6910 C.3       1 <0>         0.0000
     13 C13         2.4245   -2.8999    0.3599 C.3       1 <0>         0.0000
     14 C14         5.5959   -2.3669    4.1976 C.3       1 <0>         0.0000
     15 C15         2.3718   -3.2623   -1.1540 C.3       1 <0>         0.0000
     16 N1          0.2223   -2.8565    1.3827 N.am      1 <0>         0.0000
     17 N2          3.6959   -3.2182    0.9688 N.am      1 <0>         0.0000
     18 N3          8.3392   -3.6246    1.2202 N.am      1 <0>         0.0000
     19 O1          8.1975   -4.8927    1.7490 O.3       1 <0>         0.0000
     20 O2          9.8948   -1.9376    0.8648 O.2       1 <0>         0.0000
     21 O3          4.7482   -1.1914    0.5542 O.2       1 <0>         0.0000
     22 O4          1.5569   -4.7218    1.7089 O.2       1 <0>         0.0000
     23 H1         10.3448   -3.6933    1.7620 H         1 <0>         0.0000
     24 H2          6.6467   -4.1510    4.8609 H         1 <0>         0.0000
     25 H3          5.2091   -4.4897    3.8832 H         1 <0>         0.0000
     26 H4          5.0464   -3.9704    5.5714 H         1 <0>         0.0000
     27 H5          7.1480   -1.6962    5.5783 H         1 <0>         0.0000
     28 H6          6.0453   -0.4136    5.0465 H         1 <0>         0.0000
     29 H7          5.5042   -1.6053    6.2348 H         1 <0>         0.0000
     30 H8          3.4182   -1.4447   -1.7906 H         1 <0>         0.0000
     31 H9          3.5120   -2.7653   -2.9677 H         1 <0>         0.0000
     32 H10         4.4918   -2.8203   -1.5020 H         1 <0>         0.0000
     33 H11         1.7979   -5.3538   -0.8491 H         1 <0>         0.0000
     34 H12         3.5395   -5.1121   -0.9494 H         1 <0>         0.0000
     35 H13         2.5489   -5.0416   -2.4191 H         1 <0>         0.0000
     36 H14         0.1926   -3.3589   -1.3070 H         1 <0>         0.0000
     37 H15         0.9978   -3.1431   -2.8622 H         1 <0>         0.0000
     38 H16         0.8573   -1.7835   -1.7352 H         1 <0>         0.0000
     39 H17        -1.5882   -3.8849    1.5471 H         1 <0>         0.0000
     40 H18        -1.4189   -2.4783    2.6208 H         1 <0>         0.0000
     41 H19        -0.5348   -3.9781    2.9759 H         1 <0>         0.0000
     42 H20         7.4883   -2.3678    3.1512 H         1 <0>         0.0000
     43 H21         6.4148   -1.0554    2.6895 H         1 <0>         0.0000
     44 H22         6.8299   -3.7170   -0.1632 H         1 <0>         0.0000
     45 H23         7.4005   -2.0938    0.2440 H         1 <0>         0.0000
     46 H24         5.7385   -3.9535    2.0094 H         1 <0>         0.0000
     47 H25         2.3043   -1.8161    0.4837 H         1 <0>         0.0000
     48 H26         4.5539   -2.0890    4.0008 H         1 <0>         0.0000
     49 H27         0.1595   -1.9470    0.9352 H         1 <0>         0.0000
     50 H28         3.8157   -4.1378    1.3829 H         1 <0>         0.0000
@<TRIPOS>BOND
     1    1   18 am
     2    1   20 2
     3    2   12 1
     4    2   17 am
     5    2   21 2
     6    3   13 1
     7    3   16 am
     8    3   22 2
     9    4   14 1
    10    5   14 1
    11    6   15 1
    12    7   15 1
    13    8   15 1
    14    9   16 1
    15   10   12 1
    16   10   14 1
    17   11   12 1
    18   11   18 1
    19   13   15 1
    20   13   17 1
    21   18   19 1
    22    1   23 1
    23    4   24 1
    24    4   25 1
    25    4   26 1
    26    5   27 1
    27    5   28 1
    28    5   29 1
    29    6   30 1
    30    6   31 1
    31    6   32 1
    32    7   33 1
    33    7   34 1
    34    7   35 1
    35    8   36 1
    36    8   37 1
    37    8   38 1
    38    9   39 1
    39    9   40 1
    40    9   41 1
    41   10   42 1
    42   10   43 1
    43   11   44 1
    44   11   45 1
    45   12   46 1
    46   13   47 1
    47   14   48 1
    48   16   49 1
    49   17   50 1
@<TRIPOS>MOLECULE
LIGAND
   50    49     0     0     0
SMALL
NO_CHARGES

@<TRIPOS>ATOM
      1 C1          7.1719   -2.7895   -1.4934 C.2       1 <0>         0.0000
      2 C2          4.7609   -2.3304    1.0158 C.2       1 <0>         0.0000
      3 C3          1.3743   -3.6105    1.2141 C.2       1 <0>         0.0000
      4 C4          5.4286   -5.0551    3.9022 C.3       1 <0>         0.0000
      5 C5          5.1681   -3.1669    5.5205 C.3       1 <0>         0.0000
      6 C6          2.9144   -2.0789   -1.9851 C.3       1 <0>         0.0000
      7 C7          3.2618   -4.4861   -1.4495 C.3       1 <0>         0.0000
      8 C8          0.9399   -3.5730   -1.6309 C.3       1 <0>         0.0000
      9 C9         -0.8899   -3.3247    2.1744 C.3       1 <0>         0.0000
     10 C10         6.0212   -2.6662    3.2096 C.3       1 <0>         0.0000
     11 C11         7.2695   -2.4142    1.0053 C.3       1 <0>         0.0000
     12 C12         5.9953   -2.9363    1.6910 C.3       1 <0>         0.0000
     13 C13         2.4245   -2.8999    0.3599 C.3       1 <0>         0.0000
     14 C14         5.0884   -3.5706    4.0452 C.3       1 <0>         0.0000
     15 C15         2.3718   -3.2623   -1.1540 C.3       1 <0>         0.0000
     16 N1          0.2223   -2.8565    1.3827 N.am      1 <0>         0.0000
     17 N2          3.6959   -3.2182    0.9688 N.am      1 <0>         0.0000
     18 N3          7.5808   -3.1022   -0.2189 N.am      1 <0>         0.0000
     19 O1          8.3919   -4.2098   -0.0662 O.3       1 <0>         0.0000
     20 O2          6.4538   -1.8474   -1.8149 O.2       1 <0>         0.0000
     21 O3          4.7482   -1.1914    0.5542 O.2       1 <0>         0.0000
     22 O4          1.5569   -4.7218    1.7089 O.2       1 <0>         0.0000
     23 H1          7.5545   -3.4840   -2.2621 H         1 <0>         0.0000
     24 H2          6.4596   -5.2491    4.2175 H         1 <0>         0.0000
     25 H3          5.3256   -5.3883    2.8641 H         1 <0>         0.0000
     26 H4          4.7804   -5.6761    4.5273 H         1 <0>         0.0000
     27 H5          6.1838   -3.2884    5.9121 H         1 <0>         0.0000
     28 H6          4.8754   -2.1200    5.6540 H         1 <0>         0.0000
     29 H7          4.4947   -3.7797    6.1290 H         1 <0>         0.0000
     30 H8          2.3199   -1.1739   -1.8172 H         1 <0>         0.0000
     31 H9          2.8994   -2.2973   -3.0585 H         1 <0>         0.0000
     32 H10         3.9518   -1.8484   -1.7158 H         1 <0>         0.0000
     33 H11         2.9258   -5.3642   -0.8858 H         1 <0>         0.0000
     34 H12         4.3049   -4.3063   -1.1689 H         1 <0>         0.0000
     35 H13         3.2353   -4.7468   -2.5135 H         1 <0>         0.0000
     36 H14         0.5126   -4.4101   -1.0664 H         1 <0>         0.0000
     37 H15         0.9176   -3.8503   -2.6901 H         1 <0>         0.0000
     38 H16         0.2727   -2.7163   -1.4916 H         1 <0>         0.0000
     39 H17        -1.5882   -3.8849    1.5471 H         1 <0>         0.0000
     40 H18        -1.4189   -2.4783    2.6208 H         1 <0>         0.0000
     41 H19        -0.5348   -3.9781    2.9759 H         1 <0>         0.0000
     42 H20         7.0493   -2.7891    3.5757 H         1 <0>         0.0000
     43 H21         5.7503   -1.6191    3.3985 H         1 <0>         0.0000
     44 H22         7.1657   -1.3514    0.7623 H         1 <0>         0.0000
     45 H23         8.1413   -2.5219    1.6590 H         1 <0>         0.0000
     46 H24         5.9704   -4.0198    1.5260 H         1 <0>         0.0000
     47 H25         2.3043   -1.8161    0.4837 H         1 <0>         0.0000
     48 H26         4.0519   -3.4254    3.7195 H         1 <0>         0.0000
     49 H27         0.1595   -1.9470    0.9352 H         1 <0>         0.0000
     50 H28         3.8157   -4.1378    1.3829 H         1 <0>         0.0000
@<TRIPOS>BOND
     1    1   18 am
     2    1   20 2
     3    2   12 1
     4    2   17 am
     5    2   21 2
     6    3   13 1
     7    3   16 am
     8    3   22 2
     9    4   14 1
    10    5   14 1
    11    6   15 1
    12    7   15 1
    13    8   15 1
    14    9   16 1
    15   10   12 1
    16   10   14 1
    17   11   12 1
    18   11   18 1
    19   13   15 1
    20   13   17 1
    21   18   19 1
    22    1   23 1
    23    4   24 1
    24    4   25 1
    25    4   26 1
    26    5   27 1
    27    5   28 1
    28    5   29 1
    29    6   30 1
    30    6   31 1
    31    6   32 1
    32    7   33 1
    33    7   34 1
    34    7   35 1
    35    8   36 1
    36    8   37 1
    37    8   38 1
    38    9   39 1
    39    9   40 1
    40    9   41 1
    41   10   42 1
    42   10   43 1
    43   11   44 1
    44   11   45 1
    45   12   46 1
    46   13   47 1
    47   14   48 1
    48   16   49 1
    49   17   50 1
@<TRIPOS>MOLECULE
LIGAND
   50    49     0     0     0
SMALL
NO_CHARGES

@<TRIPOS>ATOM
      1 C1          8.7185   -5.1949    0.9438 C.2       1 <0>         0.0000
      2 C2          4.7609   -2.3304    1.0158 C.2       1 <0>         0.0000
      3 C3          1.3743   -3.6105    1.2141 C.2       1 <0>         0.0000
      4 C4          7.0285   -1.4411    4.2202 C.3       1 <0>         0.0000
      5 C5          8.3048    0.0740    2.6945 C.3       1 <0>         0.0000
      6 C6          3.5112   -2.5312   -1.8976 C.3       1 <0>         0.0000
      7 C7          2.5798   -4.7765   -1.3563 C.3       1 <0>         0.0000
      8 C8          1.0336   -2.8618   -1.8044 C.3       1 <0>         0.0000
      9 C9         -0.8899   -3.3247    2.1744 C.3       1 <0>         0.0000
     10 C10         7.1850   -1.9548    1.7203 C.3       1 <0>         0.0000
     11 C11         6.3716   -4.2554    0.9948 C.3       1 <0>         0.0000
     12 C12         5.9953   -2.9363    1.6910 C.3       1 <0>         0.0000
     13 C13         2.4245   -2.8999    0.3599 C.3       1 <0>         0.0000
     14 C14         7.0962   -0.8603    2.8067 C.3       1 <0>         0.0000
     15 C15         2.3718   -3.2623   -1.1540 C.3       1 <0>         0.0000
     16 N1          0.2223   -2.8565    1.3827 N.am      1 <0>         0.0000
     17 N2          3.6959   -3.2182    0.9688 N.am      1 <0>         0.0000
     18 N3          7.5302   -4.8900    1.5637 N.am      1 <0>         0.0000
     19 O1          7.4064   -5.2237    2.8983 O.3       1 <0>         0.0000
     20 O2          9.0034   -4.9733   -0.2294 O.2       1 <0>         0.0000
     21 O3          4.7482   -1.1914    0.5542 O.2       1 <0>         0.0000
     22 O4          1.5569   -4.7218    1.7089 O.2       1 <0>         0.0000
     23 H1          9.4507   -5.6841    1.6104 H         1 <0>         0.0000
     24 H2          7.9109   -2.0554    4.4301 H         1 <0>         0.0000
     25 H3          6.1416   -2.0705    4.3492 H         1 <0>         0.0000
     26 H4          7.0010   -0.6512    4.9764 H         1 <0>         0.0000
     27 H5          9.2434   -0.4691    2.8487 H         1 <0>         0.0000
     28 H6          8.3428    0.5443    1.7062 H         1 <0>         0.0000
     29 H7          8.2495    0.8738    3.4405 H         1 <0>         0.0000
     30 H8          3.4182   -1.4447   -1.7906 H         1 <0>         0.0000
     31 H9          3.5120   -2.7653   -2.9677 H         1 <0>         0.0000
     32 H10         4.4918   -2.8203   -1.5020 H         1 <0>         0.0000
     33 H11         1.7979   -5.3538   -0.8491 H         1 <0>         0.0000
     34 H12         3.5395   -5.1121   -0.9494 H         1 <0>         0.0000
     35 H13         2.5489   -5.0416   -2.4191 H         1 <0>         0.0000
     36 H14         0.1926   -3.3589   -1.3070 H         1 <0>         0.0000
     37 H15         0.9978   -3.1431   -2.8622 H         1 <0>         0.0000
     38 H16         0.8573   -1.7835   -1.7352 H         1 <0>         0.0000
     39 H17        -1.5882   -3.8849    1.5471 H         1 <0>         0.0000
     40 H18        -1.4189   -2.4783    2.6208 H         1 <0>         0.0000
     41 H19        -0.5348   -3.9781    2.9759 H         1 <0>         0.0000
     42 H20         8.1124   -2.5237    1.8705 H         1 <0>         0.0000
     43 H21         7.2788   -1.4660    0.7417 H         1 <0>         0.0000
     44 H22         5.5455   -4.9716    1.0590 H         1 <0>         0.0000
     45 H23         6.5888   -4.0932   -0.0661 H         1 <0>         0.0000
     46 H24         5.7229   -3.1911    2.7220 H         1 <0>         0.0000
     47 H25         2.3043   -1.8161    0.4837 H         1 <0>         0.0000
     48 H26         6.1964   -0.2560    2.6429 H         1 <0>         0.0000
     49 H27         0.1595   -1.9470    0.9352 H         1 <0>         0.0000
     50 H28         3.8157   -4.1378    1.3829 H         1 <0>         0.0000
@<TRIPOS>BOND
     1    1   18 am
     2    1   20 2
     3    2   12 1
     4    2   17 am
     5    2   21 2
     6    3   13 1
     7    3   16 am
     8    3   22 2
     9    4   14 1
    10    5   14 1
    11    6   15 1
    12    7   15 1
    13    8   15 1
    14    9   16 1
    15   10   12 1
    16   10   14 1
    17   11   12 1
    18   11   18 1
    19   13   15 1
    20   13   17 1
    21   18   19 1
    22    1   23 1
    23    4   24 1
    24    4   25 1
    25    4   26 1
    26    5   27 1
    27    5   28 1
    28    5   29 1
    29    6   30 1
    30    6   31 1
    31    6   32 1
    32    7   33 1
    33    7   34 1
    34    7   35 1
    35    8   36 1
    36    8   37 1
    37    8   38 1
    38    9   39 1
    39    9   40 1
    40    9   41 1
    41   10   42 1
    42   10   43 1
    43   11   44 1
    44   11   45 1
    45   12   46 1
    46   13   47 1
    47   14   48 1
    48   16   49 1
    49   17   50 1
@<TRIPOS>MOLECULE
LIGAND
   50    49     0     0     0
SMALL
NO_CHARGES

@<TRIPOS>ATOM
      1 C1          6.1780   -1.1790    4.5937 C.2       1 <0>         0.0000
      2 C2          4.7609   -2.3304    1.0158 C.2       1 <0>         0.0000
      3 C3          1.4114   -2.9063    1.5049 C.2       1 <0>         0.0000
      4 C4          7.9668   -2.9805   -0.7195 C.3       1 <0>         0.0000
      5 C5          7.2752   -5.3485   -1.1277 C.3       1 <0>         0.0000
      6 C6          3.1857   -3.8003   -1.8813 C.3       1 <0>         0.0000
      7 C7          1.9543   -5.3076   -0.3278 C.3       1 <0>         0.0000
      8 C8          0.7370   -3.4626   -1.4991 C.3       1 <0>         0.0000
      9 C9         -0.5781   -1.7107    2.3670 C.3       1 <0>         0.0000
     10 C10         6.4903   -4.2069    0.9698 C.3       1 <0>         0.0000
     11 C11         5.6912   -3.2135    3.1734 C.3       1 <0>         0.0000
     12 C12         5.9953   -2.9363    1.6910 C.3       1 <0>         0.0000
     13 C13         2.4245   -2.8999    0.3599 C.3       1 <0>         0.0000
     14 C14         6.8518   -4.0083   -0.5189 C.3       1 <0>         0.0000
     15 C15         2.0646   -3.8508   -0.8201 C.3       1 <0>         0.0000
     16 N1          0.4604   -1.9038    1.3835 N.am      1 <0>         0.0000
     17 N2          3.6959   -3.2182    0.9688 N.am      1 <0>         0.0000
     18 N3          5.3407   -2.0316    3.9142 N.am      1 <0>         0.0000
     19 O1          3.9906   -1.7407    3.9285 O.3       1 <0>         0.0000
     20 O2          5.8430   -0.1762    5.2172 O.2       1 <0>         0.0000
     21 O3          4.7482   -1.1914    0.5542 O.2       1 <0>         0.0000
     22 O4          1.4623   -3.7076    2.4368 O.2       1 <0>         0.0000
     23 H1          7.2418   -1.4708    4.5409 H         1 <0>         0.0000
     24 H2          8.8753   -3.2848   -0.1883 H         1 <0>         0.0000
     25 H3          7.6713   -1.9951   -0.3441 H         1 <0>         0.0000
     26 H4          8.2323   -2.8793   -1.7758 H         1 <0>         0.0000
     27 H5          8.1599   -5.7527   -0.6240 H         1 <0>         0.0000
     28 H6          6.4698   -6.0859   -1.0440 H         1 <0>         0.0000
     29 H7          7.5125   -5.2358   -2.1909 H         1 <0>         0.0000
     30 H8          3.3133   -2.7845   -2.2720 H         1 <0>         0.0000
     31 H9          2.9723   -4.4622   -2.7277 H         1 <0>         0.0000
     32 H10         4.1465   -4.1154   -1.4578 H         1 <0>         0.0000
     33 H11         1.1705   -5.4095    0.4319 H         1 <0>         0.0000
     34 H12         2.8879   -5.6535    0.1281 H         1 <0>         0.0000
     35 H13         1.7055   -5.9859   -1.1517 H         1 <0>         0.0000
     36 H14        -0.0909   -3.4848   -0.7807 H         1 <0>         0.0000
     37 H15         0.4812   -4.1517   -2.3109 H         1 <0>         0.0000
     38 H16         0.7762   -2.4505   -1.9146 H         1 <0>         0.0000
     39 H17        -1.4589   -2.3023    2.1044 H         1 <0>         0.0000
     40 H18        -0.8634   -0.6562    2.4133 H         1 <0>         0.0000
     41 H19        -0.2264   -2.0222    3.3542 H         1 <0>         0.0000
     42 H20         7.3727   -4.5944    1.4964 H         1 <0>         0.0000
     43 H21         5.7222   -4.9884    1.0394 H         1 <0>         0.0000
     44 H22         4.8556   -3.9151    3.2682 H         1 <0>         0.0000
     45 H23         6.5563   -3.6574    3.6769 H         1 <0>         0.0000
     46 H24         6.7931   -2.1847    1.6686 H         1 <0>         0.0000
     47 H25         2.5279   -1.8729   -0.0129 H         1 <0>         0.0000
     48 H26         5.9671   -3.6628   -1.0661 H         1 <0>         0.0000
     49 H27         0.4960   -1.2867    0.5777 H         1 <0>         0.0000
     50 H28         3.8157   -4.1378    1.3829 H         1 <0>         0.0000
@<TRIPOS>BOND
     1    1   18 am
     2    1   20 2
     3    2   12 1
     4    2   17 am
     5    2   21 2
     6    3   13 1
     7    3   16 am
     8    3   22 2
     9    4   14 1
    10    5   14 1
    11    6   15 1
    12    7   15 1
    13    8   15 1
    14    9   16 1
    15   10   12 1
    16   10   14 1
    17   11   12 1
    18   11   18 1
    19   13   15 1
    20   13   17 1
    21   18   19 1
    22    1   23 1
    23    4   24 1
    24    4   25 1
    25    4   26 1
    26    5   27 1
    27    5   28 1
    28    5   29 1
    29    6   30 1
    30    6   31 1
    31    6   32 1
    32    7   33 1
    33    7   34 1
    34    7   35 1
    35    8   36 1
    36    8   37 1
    37    8   38 1
    38    9   39 1
    39    9   40 1
    40    9   41 1
    41   10   42 1
    42   10   43 1
    43   11   44 1
    44   11   45 1
    45   12   46 1
    46   13   47 1
    47   14   48 1
    48   16   49 1
    49   17   50 1
@<TRIPOS>MOLECULE
LIGAND
   50    49     0     0     0
SMALL
NO_CHARGES

@<TRIPOS>ATOM
      1 C1          8.2041   -5.3564    0.7906 C.2       1 <0>         0.0000
      2 C2          4.7609   -2.3304    1.0158 C.2       1 <0>         0.0000
      3 C3          1.6238   -2.1763    1.4428 C.2       1 <0>         0.0000
      4 C4          4.8998   -3.3220    4.5808 C.3       1 <0>         0.0000
      5 C5          5.9126   -1.1117    5.1647 C.3       1 <0>         0.0000
      6 C6          2.6382   -4.8237   -1.2732 C.3       1 <0>         0.0000
      7 C7          1.4139   -5.1834    0.8654 C.3       1 <0>         0.0000
      8 C8          0.3871   -3.7862   -0.9377 C.3       1 <0>         0.0000
      9 C9          1.1427   -2.2044    3.8715 C.3       1 <0>         0.0000
     10 C10         6.4405   -2.1272    2.9267 C.3       1 <0>         0.0000
     11 C11         7.1342   -3.0688    0.6654 C.3       1 <0>         0.0000
     12 C12         5.9953   -2.9363    1.6910 C.3       1 <0>         0.0000
     13 C13         2.4245   -2.8999    0.3599 C.3       1 <0>         0.0000
     14 C14         5.3645   -1.9750    4.0244 C.3       1 <0>         0.0000
     15 C15         1.7114   -4.1488   -0.2382 C.3       1 <0>         0.0000
     16 N1          1.8198   -2.7177    2.7048 N.am      1 <0>         0.0000
     17 N2          3.6959   -3.2182    0.9688 N.am      1 <0>         0.0000
     18 N3          8.1489   -4.0093    1.0586 N.am      1 <0>         0.0000
     19 O1          9.1831   -3.4656    1.7950 O.3       1 <0>         0.0000
     20 O2          7.3782   -6.0047    0.1549 O.2       1 <0>         0.0000
     21 O3          4.7482   -1.1914    0.5542 O.2       1 <0>         0.0000
     22 O4          0.8744   -1.2316    1.1999 O.2       1 <0>         0.0000
     23 H1          9.0967   -5.8531    1.2102 H         1 <0>         0.0000
     24 H2          5.7423   -3.8772    5.0075 H         1 <0>         0.0000
     25 H3          4.4501   -3.9417    3.7978 H         1 <0>         0.0000
     26 H4          4.1642   -3.1925    5.3800 H         1 <0>         0.0000
     27 H5          6.7922   -1.5734    5.6261 H         1 <0>         0.0000
     28 H6          6.2016   -0.1209    4.7985 H         1 <0>         0.0000
     29 H7          5.1564   -0.9697    5.9440 H         1 <0>         0.0000
     30 H8          2.8872   -4.1345   -2.0879 H         1 <0>         0.0000
     31 H9          2.1738   -5.7124   -1.7140 H         1 <0>         0.0000
     32 H10         3.5794   -5.1449   -0.8119 H         1 <0>         0.0000
     33 H11         0.7565   -4.7621    1.6349 H         1 <0>         0.0000
     34 H12         2.3282   -5.5113    1.3711 H         1 <0>         0.0000
     35 H13         0.9158   -6.0685    0.4541 H         1 <0>         0.0000
     36 H14        -0.3050   -3.3025   -0.2384 H         1 <0>         0.0000
     37 H15        -0.1179   -4.6740   -1.3329 H         1 <0>         0.0000
     38 H16         0.5457   -3.0900   -1.7676 H         1 <0>         0.0000
     39 H17         1.7401   -1.4157    4.3360 H         1 <0>         0.0000
     40 H18         0.9874   -3.0042    4.6007 H         1 <0>         0.0000
     41 H19         0.1698   -1.7909    3.5925 H         1 <0>         0.0000
     42 H20         7.3251   -2.6069    3.3666 H         1 <0>         0.0000
     43 H21         6.7588   -1.1249    2.6110 H         1 <0>         0.0000
     44 H22         6.7419   -3.4007   -0.3017 H         1 <0>         0.0000
     45 H23         7.6368   -2.1087    0.5083 H         1 <0>         0.0000
     46 H24         5.7385   -3.9535    2.0094 H         1 <0>         0.0000
     47 H25         2.6549   -2.1876   -0.4426 H         1 <0>         0.0000
     48 H26         4.4913   -1.4577    3.6101 H         1 <0>         0.0000
     49 H27         2.4595   -3.4993    2.8111 H         1 <0>         0.0000
     50 H28         3.8157   -4.1378    1.3829 H         1 <0>         0.0000
@<TRIPOS>BOND
     1    1   18 am
     2    1   20 2
     3    2   12 1
     4    2   17 am
     5    2   21 2
     6    3   13 1
     7    3   16 am
     8    3   22 2
     9    4   14 1
    10    5   14 1
    11    6   15 1
    12    7   15 1
    13    8   15 1
    14    9   16 1
    15   10   12 1
    16   10   14 1
    17   11   12 1
    18   11   18 1
    19   13   15 1
    20   13   17 1
    21   18   19 1
    22    1   23 1
    23    4   24 1
    24    4   25 1
    25    4   26 1
    26    5   27 1
    27    5   28 1
    28    5   29 1
    29    6   30 1
    30    6   31 1
    31    6   32 1
    32    7   33 1
    33    7   34 1
    34    7   35 1
    35    8   36 1
    36    8   37 1
    37    8   38 1
    38    9   39 1
    39    9   40 1
    40    9   41 1
    41   10   42 1
    42   10   43 1
    43   11   44 1
    44   11   45 1
    45   12   46 1
    46   13   47 1
    47   14   48 1
    48   16   49 1
    49   17   50 1
@<TRIPOS>MOLECULE
LIGAND
   50    49     0     0     0
SMALL
NO_CHARGES

@<TRIPOS>ATOM
      1 C1          5.2485   -0.8480    3.9490 C.2       1 <0>         0.0000
      2 C2          4.7609   -2.3304    1.0158 C.2       1 <0>         0.0000
      3 C3          1.3743   -3.6105    1.2141 C.2       1 <0>         0.0000
      4 C4          8.5547   -3.1178   -0.0742 C.3       1 <0>         0.0000
      5 C5          7.6782   -5.2829   -0.9666 C.3       1 <0>         0.0000
      6 C6          3.5112   -2.5312   -1.8976 C.3       1 <0>         0.0000
      7 C7          2.5798   -4.7765   -1.3563 C.3       1 <0>         0.0000
      8 C8          1.0336   -2.8618   -1.8044 C.3       1 <0>         0.0000
      9 C9         -0.8899   -3.3247    2.1744 C.3       1 <0>         0.0000
     10 C10         6.4903   -4.2069    0.9698 C.3       1 <0>         0.0000
     11 C11         5.6912   -3.2135    3.1734 C.3       1 <0>         0.0000
     12 C12         5.9953   -2.9363    1.6910 C.3       1 <0>         0.0000
     13 C13         2.4245   -2.8999    0.3599 C.3       1 <0>         0.0000
     14 C14         7.2936   -3.9469   -0.3237 C.3       1 <0>         0.0000
     15 C15         2.3718   -3.2623   -1.1540 C.3       1 <0>         0.0000
     16 N1          0.2223   -2.8565    1.3827 N.am      1 <0>         0.0000
     17 N2          3.6959   -3.2182    0.9688 N.am      1 <0>         0.0000
     18 N3          4.9199   -2.1744    3.8012 N.am      1 <0>         0.0000
     19 O1          3.7039   -2.5877    4.3094 O.3       1 <0>         0.0000
     20 O2          6.2807   -0.3081    3.5621 O.2       1 <0>         0.0000
     21 O3          4.7482   -1.1914    0.5542 O.2       1 <0>         0.0000
     22 O4          1.5569   -4.7218    1.7089 O.2       1 <0>         0.0000
     23 H1          4.4754   -0.2579    4.4722 H         1 <0>         0.0000
     24 H2          9.2158   -3.6219    0.6392 H         1 <0>         0.0000
     25 H3          8.3079   -2.1320    0.3339 H         1 <0>         0.0000
     26 H4          9.1275   -2.9738   -0.9949 H         1 <0>         0.0000
     27 H5          8.3104   -5.8785   -0.2992 H         1 <0>         0.0000
     28 H6          6.7859   -5.8716   -1.2045 H         1 <0>         0.0000
     29 H7          8.2280   -5.1221   -1.9000 H         1 <0>         0.0000
     30 H8          3.4182   -1.4447   -1.7906 H         1 <0>         0.0000
     31 H9          3.5120   -2.7653   -2.9677 H         1 <0>         0.0000
     32 H10         4.4918   -2.8203   -1.5020 H         1 <0>         0.0000
     33 H11         1.7979   -5.3538   -0.8491 H         1 <0>         0.0000
     34 H12         3.5395   -5.1121   -0.9494 H         1 <0>         0.0000
     35 H13         2.5489   -5.0416   -2.4191 H         1 <0>         0.0000
     36 H14         0.1926   -3.3589   -1.3070 H         1 <0>         0.0000
     37 H15         0.9978   -3.1431   -2.8622 H         1 <0>         0.0000
     38 H16         0.8573   -1.7835   -1.7352 H         1 <0>         0.0000
     39 H17        -1.5882   -3.8849    1.5471 H         1 <0>         0.0000
     40 H18        -1.4189   -2.4783    2.6208 H         1 <0>         0.0000
     41 H19        -0.5348   -3.9781    2.9759 H         1 <0>         0.0000
     42 H20         7.1160   -4.7876    1.6607 H         1 <0>         0.0000
     43 H21         5.6310   -4.8442    0.7228 H         1 <0>         0.0000
     44 H22         5.1267   -4.1459    3.2806 H         1 <0>         0.0000
     45 H23         6.6147   -3.3158    3.7527 H         1 <0>         0.0000
     46 H24         6.7931   -2.1847    1.6686 H         1 <0>         0.0000
     47 H25         2.3043   -1.8161    0.4837 H         1 <0>         0.0000
     48 H26         6.6656   -3.4052   -1.0405 H         1 <0>         0.0000
     49 H27         0.1595   -1.9470    0.9352 H         1 <0>         0.0000
     50 H28         3.8157   -4.1378    1.3829 H         1 <0>         0.0000
@<TRIPOS>BOND
     1    1   18 am
     2    1   20 2
     3    2   12 1
     4    2   17 am
     5    2   21 2
     6    3   13 1
     7    3   16 am
     8    3   22 2
     9    4   14 1
    10    5   14 1
    11    6   15 1
    12    7   15 1
    13    8   15 1
    14    9   16 1
    15   10   12 1
    16   10   14 1
    17   11   12 1
    18   11   18 1
    19   13   15 1
    20   13   17 1
    21   18   19 1
    22    1   23 1
    23    4   24 1
    24    4   25 1
    25    4   26 1
    26    5   27 1
    27    5   28 1
    28    5   29 1
    29    6   30 1
    30    6   31 1
    31    6   32 1
    32    7   33 1
    33    7   34 1
    34    7   35 1
    35    8   36 1
    36    8   37 1
    37    8   38 1
    38    9   39 1
    39    9   40 1
    40    9   41 1
    41   10   42 1
    42   10   43 1
    43   11   44 1
    44   11   45 1
    45   12   46 1
    46   13   47 1
    47   14   48 1
    48   16   49 1
    49   17   50 1
@<TRIPOS>MOLECULE
LIGAND
   50    49     0     0     0
SMALL
NO_CHARGES

@<TRIPOS>ATOM
      1 C1          6.0978   -0.9016    4.1132 C.2       1 <0>         0.0000
      2 C2          4.7609   -2.3304    1.0158 C.2       1 <0>         0.0000
      3 C3          1.9548   -1.6162    1.0446 C.2       1 <0>         0.0000
      4 C4          7.9668   -2.9805   -0.7195 C.3       1 <0>         0.0000
      5 C5          7.2752   -5.3485   -1.1277 C.3       1 <0>         0.0000
      6 C6          2.0155   -5.3270   -0.2360 C.3       1 <0>         0.0000
      7 C7          1.1035   -4.4371    1.9036 C.3       1 <0>         0.0000
      8 C8          0.0778   -3.7458   -0.2707 C.3       1 <0>         0.0000
      9 C9          0.8348    0.5461    0.5966 C.3       1 <0>         0.0000
     10 C10         6.4903   -4.2069    0.9698 C.3       1 <0>         0.0000
     11 C11         5.6912   -3.2135    3.1734 C.3       1 <0>         0.0000
     12 C12         5.9953   -2.9363    1.6910 C.3       1 <0>         0.0000
     13 C13         2.4245   -2.8999    0.3599 C.3       1 <0>         0.0000
     14 C14         6.8518   -4.0083   -0.5189 C.3       1 <0>         0.0000
     15 C15         1.4067   -4.0765    0.4357 C.3       1 <0>         0.0000
     16 N1          1.3343   -0.7384    0.1680 N.am      1 <0>         0.0000
     17 N2          3.6959   -3.2182    0.9688 N.am      1 <0>         0.0000
     18 N3          5.3407   -2.0316    3.9142 N.am      1 <0>         0.0000
     19 O1          4.0837   -2.0623    4.4856 O.3       1 <0>         0.0000
     20 O2          7.2298   -0.7010    3.6833 O.2       1 <0>         0.0000
     21 O3          4.7482   -1.1914    0.5542 O.2       1 <0>         0.0000
     22 O4          2.1356   -1.3931    2.2407 O.2       1 <0>         0.0000
     23 H1          5.5914   -0.1337    4.7244 H         1 <0>         0.0000
     24 H2          8.8753   -3.2848   -0.1883 H         1 <0>         0.0000
     25 H3          7.6713   -1.9951   -0.3441 H         1 <0>         0.0000
     26 H4          8.2323   -2.8793   -1.7758 H         1 <0>         0.0000
     27 H5          8.1599   -5.7527   -0.6240 H         1 <0>         0.0000
     28 H6          6.4698   -6.0859   -1.0440 H         1 <0>         0.0000
     29 H7          7.5125   -5.2358   -2.1909 H         1 <0>         0.0000
     30 H8          2.2541   -5.1329   -1.2877 H         1 <0>         0.0000
     31 H9          1.3305   -6.1810   -0.1982 H         1 <0>         0.0000
     32 H10         2.9425   -5.6329    0.2628 H         1 <0>         0.0000
     33 H11         0.6668   -3.5850    2.4375 H         1 <0>         0.0000
     34 H12         2.0104   -4.7234    2.4466 H         1 <0>         0.0000
     35 H13         0.3913   -5.2673    1.9681 H         1 <0>         0.0000
     36 H14        -0.3923   -2.8611    0.1746 H         1 <0>         0.0000
     37 H15        -0.6390   -4.5698   -0.1902 H         1 <0>         0.0000
     38 H16         0.2276   -3.5306   -1.3336 H         1 <0>         0.0000
     39 H17        -0.2038    0.4548    0.9249 H         1 <0>         0.0000
     40 H18         0.8817    1.2638   -0.2270 H         1 <0>         0.0000
     41 H19         1.4345    0.9267    1.4277 H         1 <0>         0.0000
     42 H20         7.3727   -4.5944    1.4964 H         1 <0>         0.0000
     43 H21         5.7222   -4.9884    1.0394 H         1 <0>         0.0000
     44 H22         4.8556   -3.9151    3.2682 H         1 <0>         0.0000
     45 H23         6.5563   -3.6574    3.6769 H         1 <0>         0.0000
     46 H24         6.7931   -2.1847    1.6686 H         1 <0>         0.0000
     47 H25         2.6512   -2.6760   -0.6903 H         1 <0>         0.0000
     48 H26         5.9671   -3.6628   -1.0661 H         1 <0>         0.0000
     49 H27         1.2283   -1.0078   -0.8054 H         1 <0>         0.0000
     50 H28         3.8157   -4.1378    1.3829 H         1 <0>         0.0000
@<TRIPOS>BOND
     1    1   18 am
     2    1   20 2
     3    2   12 1
     4    2   17 am
     5    2   21 2
     6    3   13 1
     7    3   16 am
     8    3   22 2
     9    4   14 1
    10    5   14 1
    11    6   15 1
    12    7   15 1
    13    8   15 1
    14    9   16 1
    15   10   12 1
    16   10   14 1
    17   11   12 1
    18   11   18 1
    19   13   15 1
    20   13   17 1
    21   18   19 1
    22    1   23 1
    23    4   24 1
    24    4   25 1
    25    4   26 1
    26    5   27 1
    27    5   28 1
    28    5   29 1
    29    6   30 1
    30    6   31 1
    31    6   32 1
    32    7   33 1
    33    7   34 1
    34    7   35 1
    35    8   36 1
    36    8   37 1
    37    8   38 1
    38    9   39 1
    39    9   40 1
    40    9   41 1
    41   10   42 1
    42   10   43 1
    43   11   44 1
    44   11   45 1
    45   12   46 1
    46   13   47 1
    47   14   48 1
    48   16   49 1
    49   17   50 1
@<TRIPOS>MOLECULE
LIGAND
   50    49     0     0     0
SMALL
NO_CHARGES

@<TRIPOS>ATOM
      1 C1          9.0094   -4.5043    1.6394 C.2       1 <0>         0.0000
      2 C2          4.7609   -2.3304    1.0158 C.2       1 <0>         0.0000
      3 C3          1.4114   -2.9063    1.5049 C.2       1 <0>         0.0000
      4 C4          5.5916   -1.8934    4.5978 C.3       1 <0>         0.0000
      5 C5          7.0929    0.0222    4.0244 C.3       1 <0>         0.0000
      6 C6          3.1857   -3.8003   -1.8813 C.3       1 <0>         0.0000
      7 C7          1.9543   -5.3076   -0.3278 C.3       1 <0>         0.0000
      8 C8          0.7370   -3.4626   -1.4991 C.3       1 <0>         0.0000
      9 C9          0.8046   -4.1182    3.5770 C.3       1 <0>         0.0000
     10 C10         6.8665   -1.8668    2.3816 C.3       1 <0>         0.0000
     11 C11         6.8055   -3.7427    0.6616 C.3       1 <0>         0.0000
     12 C12         5.9953   -2.9363    1.6910 C.3       1 <0>         0.0000
     13 C13         2.4245   -2.8999    0.3599 C.3       1 <0>         0.0000
     14 C14         6.1374   -1.0321    3.4575 C.3       1 <0>         0.0000
     15 C15         2.0646   -3.8508   -0.8201 C.3       1 <0>         0.0000
     16 N1          1.6532   -3.9132    2.4277 N.am      1 <0>         0.0000
     17 N2          3.6959   -3.2182    0.9688 N.am      1 <0>         0.0000
     18 N3          7.7018   -4.6947    1.2608 N.am      1 <0>         0.0000
     19 O1          7.1560   -5.9460    1.4704 O.3       1 <0>         0.0000
     20 O2          9.6534   -3.4652    1.5292 O.2       1 <0>         0.0000
     21 O3          4.7482   -1.1914    0.5542 O.2       1 <0>         0.0000
     22 O4          0.4758   -2.1105    1.5728 O.2       1 <0>         0.0000
     23 H1          9.4767   -5.4035    2.0784 H         1 <0>         0.0000
     24 H2          6.4006   -2.4456    5.0885 H         1 <0>         0.0000
     25 H3          4.8609   -2.6219    4.2310 H         1 <0>         0.0000
     26 H4          5.1097   -1.2817    5.3659 H         1 <0>         0.0000
     27 H5          7.9623   -0.4436    4.5008 H         1 <0>         0.0000
     28 H6          7.4545    0.6861    3.2321 H         1 <0>         0.0000
     29 H7          6.5886    0.6429    4.7727 H         1 <0>         0.0000
     30 H8          3.3133   -2.7845   -2.2720 H         1 <0>         0.0000
     31 H9          2.9723   -4.4622   -2.7277 H         1 <0>         0.0000
     32 H10         4.1465   -4.1154   -1.4578 H         1 <0>         0.0000
     33 H11         1.1705   -5.4095    0.4319 H         1 <0>         0.0000
     34 H12         2.8879   -5.6535    0.1281 H         1 <0>         0.0000
     35 H13         1.7055   -5.9859   -1.1517 H         1 <0>         0.0000
     36 H14        -0.0909   -3.4848   -0.7807 H         1 <0>         0.0000
     37 H15         0.4812   -4.1517   -2.3109 H         1 <0>         0.0000
     38 H16         0.7762   -2.4505   -1.9146 H         1 <0>         0.0000
     39 H17         1.1692   -3.5298    4.4230 H         1 <0>         0.0000
     40 H18         0.7992   -5.1745    3.8593 H         1 <0>         0.0000
     41 H19        -0.2198   -3.8109    3.3501 H         1 <0>         0.0000
     42 H20         7.7322   -2.3581    2.8457 H         1 <0>         0.0000
     43 H21         7.2705   -1.1813    1.6250 H         1 <0>         0.0000
     44 H22         6.1354   -4.3010   -0.0008 H         1 <0>         0.0000
     45 H23         7.4165   -3.0830    0.0367 H         1 <0>         0.0000
     46 H24         5.6479   -3.6501    2.4472 H         1 <0>         0.0000
     47 H25         2.5279   -1.8729   -0.0129 H         1 <0>         0.0000
     48 H26         5.2955   -0.5008    2.9986 H         1 <0>         0.0000
     49 H27         2.4520   -4.5251    2.2903 H         1 <0>         0.0000
     50 H28         3.8157   -4.1378    1.3829 H         1 <0>         0.0000
@<TRIPOS>BOND
     1    1   18 am
     2    1   20 2
     3    2   12 1
     4    2   17 am
     5    2   21 2
     6    3   13 1
     7    3   16 am
     8    3   22 2
     9    4   14 1
    10    5   14 1
    11    6   15 1
    12    7   15 1
    13    8   15 1
    14    9   16 1
    15   10   12 1
    16   10   14 1
    17   11   12 1
    18   11   18 1
    19   13   15 1
    20   13   17 1
    21   18   19 1
    22    1   23 1
    23    4   24 1
    24    4   25 1
    25    4   26 1
    26    5   27 1
    27    5   28 1
    28    5   29 1
    29    6   30 1
    30    6   31 1
    31    6   32 1
    32    7   33 1
    33    7   34 1
    34    7   35 1
    35    8   36 1
    36    8   37 1
    37    8   38 1
    38    9   39 1
    39    9   40 1
    40    9   41 1
    41   10   42 1
    42   10   43 1
    43   11   44 1
    44   11   45 1
    45   12   46 1
    46   13   47 1
    47   14   48 1
    48   16   49 1
    49   17   50 1
@<TRIPOS>MOLECULE
LIGAND
   50    49     0     0     0
SMALL
NO_CHARGES

@<TRIPOS>ATOM
      1 C1          8.8722   -4.3065    0.5112 C.2       1 <0>         0.0000
      2 C2          4.7609   -2.3304    1.0158 C.2       1 <0>         0.0000
      3 C3          1.3743   -3.6105    1.2141 C.2       1 <0>         0.0000
      4 C4          4.6188   -4.7049    3.8537 C.3       1 <0>         0.0000
      5 C5          4.9148   -2.8132    5.4620 C.3       1 <0>         0.0000
      6 C6          3.5112   -2.5312   -1.8976 C.3       1 <0>         0.0000
      7 C7          2.5798   -4.7765   -1.3563 C.3       1 <0>         0.0000
      8 C8          1.0336   -2.8618   -1.8044 C.3       1 <0>         0.0000
      9 C9         -0.8899   -3.3247    2.1744 C.3       1 <0>         0.0000
     10 C10         6.0212   -2.6662    3.2096 C.3       1 <0>         0.0000
     11 C11         7.2695   -2.4142    1.0053 C.3       1 <0>         0.0000
     12 C12         5.9953   -2.9363    1.6910 C.3       1 <0>         0.0000
     13 C13         2.4245   -2.8999    0.3599 C.3       1 <0>         0.0000
     14 C14         4.7908   -3.1904    3.9826 C.3       1 <0>         0.0000
     15 C15         2.3718   -3.2623   -1.1540 C.3       1 <0>         0.0000
     16 N1          0.2223   -2.8565    1.3827 N.am      1 <0>         0.0000
     17 N2          3.6959   -3.2182    0.9688 N.am      1 <0>         0.0000
     18 N3          8.4249   -3.2358    1.2479 N.am      1 <0>         0.0000
     19 O1          9.1570   -2.8836    2.3650 O.3       1 <0>         0.0000
     20 O2          8.3512   -4.7574   -0.5046 O.2       1 <0>         0.0000
     21 O3          4.7482   -1.1914    0.5542 O.2       1 <0>         0.0000
     22 O4          1.5569   -4.7218    1.7089 O.2       1 <0>         0.0000
     23 H1          9.7906   -4.7674    0.9160 H         1 <0>         0.0000
     24 H2          5.5037   -5.2294    4.2303 H         1 <0>         0.0000
     25 H3          4.4709   -5.0006    2.8097 H         1 <0>         0.0000
     26 H4          3.7637   -5.0613    4.4353 H         1 <0>         0.0000
     27 H5          5.8053   -3.2631    5.9141 H         1 <0>         0.0000
     28 H6          4.9845   -1.7270    5.5823 H         1 <0>         0.0000
     29 H7          4.0398   -3.1538    6.0255 H         1 <0>         0.0000
     30 H8          3.4182   -1.4447   -1.7906 H         1 <0>         0.0000
     31 H9          3.5120   -2.7653   -2.9677 H         1 <0>         0.0000
     32 H10         4.4918   -2.8203   -1.5020 H         1 <0>         0.0000
     33 H11         1.7979   -5.3538   -0.8491 H         1 <0>         0.0000
     34 H12         3.5395   -5.1121   -0.9494 H         1 <0>         0.0000
     35 H13         2.5489   -5.0416   -2.4191 H         1 <0>         0.0000
     36 H14         0.1926   -3.3589   -1.3070 H         1 <0>         0.0000
     37 H15         0.9978   -3.1431   -2.8622 H         1 <0>         0.0000
     38 H16         0.8573   -1.7835   -1.7352 H         1 <0>         0.0000
     39 H17        -1.5882   -3.8849    1.5471 H         1 <0>         0.0000
     40 H18        -1.4189   -2.4783    2.6208 H         1 <0>         0.0000
     41 H19        -0.5348   -3.9781    2.9759 H         1 <0>         0.0000
     42 H20         6.9244   -3.1220    3.6370 H         1 <0>         0.0000
     43 H21         6.1083   -1.5861    3.3865 H         1 <0>         0.0000
     44 H22         7.1283   -2.3661   -0.0797 H         1 <0>         0.0000
     45 H23         7.5195   -1.4064    1.3527 H         1 <0>         0.0000
     46 H24         5.9704   -4.0198    1.5260 H         1 <0>         0.0000
     47 H25         2.3043   -1.8161    0.4837 H         1 <0>         0.0000
     48 H26         3.8848   -2.7101    3.5951 H         1 <0>         0.0000
     49 H27         0.1595   -1.9470    0.9352 H         1 <0>         0.0000
     50 H28         3.8157   -4.1378    1.3829 H         1 <0>         0.0000
@<TRIPOS>BOND
     1    1   18 am
     2    1   20 2
     3    2   12 1
     4    2   17 am
     5    2   21 2
     6    3   13 1
     7    3   16 am
     8    3   22 2
     9    4   14 1
    10    5   14 1
    11    6   15 1
    12    7   15 1
    13    8   15 1
    14    9   16 1
    15   10   12 1
    16   10   14 1
    17   11   12 1
    18   11   18 1
    19   13   15 1
    20   13   17 1
    21   18   19 1
    22    1   23 1
    23    4   24 1
    24    4   25 1
    25    4   26 1
    26    5   27 1
    27    5   28 1
    28    5   29 1
    29    6   30 1
    30    6   31 1
    31    6   32 1
    32    7   33 1
    33    7   34 1
    34    7   35 1
    35    8   36 1
    36    8   37 1
    37    8   38 1
    38    9   39 1
    39    9   40 1
    40    9   41 1
    41   10   42 1
    42   10   43 1
    43   11   44 1
    44   11   45 1
    45   12   46 1
    46   13   47 1
    47   14   48 1
    48   16   49 1
    49   17   50 1
@<TRIPOS>MOLECULE
LIGAND
   50    49     0     0     0
SMALL
NO_CHARGES

@<TRIPOS>ATOM
      1 C1          8.1233   -5.5837    1.7875 C.2       1 <0>         0.0000
      2 C2          4.7609   -2.3304    1.0158 C.2       1 <0>         0.0000
      3 C3          1.4114   -2.9063    1.5049 C.2       1 <0>         0.0000
      4 C4          5.5916   -1.8934    4.5978 C.3       1 <0>         0.0000
      5 C5          7.0929    0.0222    4.0244 C.3       1 <0>         0.0000
      6 C6          3.1857   -3.8003   -1.8813 C.3       1 <0>         0.0000
      7 C7          1.9543   -5.3076   -0.3278 C.3       1 <0>         0.0000
      8 C8          0.7370   -3.4626   -1.4991 C.3       1 <0>         0.0000
      9 C9         -0.5781   -1.7107    2.3670 C.3       1 <0>         0.0000
     10 C10         6.8665   -1.8668    2.3816 C.3       1 <0>         0.0000
     11 C11         6.8055   -3.7427    0.6616 C.3       1 <0>         0.0000
     12 C12         5.9953   -2.9363    1.6910 C.3       1 <0>         0.0000
     13 C13         2.4245   -2.8999    0.3599 C.3       1 <0>         0.0000
     14 C14         6.1374   -1.0321    3.4575 C.3       1 <0>         0.0000
     15 C15         2.0646   -3.8508   -0.8201 C.3       1 <0>         0.0000
     16 N1          0.4604   -1.9038    1.3835 N.am      1 <0>         0.0000
     17 N2          3.6959   -3.2182    0.9688 N.am      1 <0>         0.0000
     18 N3          7.9912   -4.3422    1.2125 N.am      1 <0>         0.0000
     19 O1          9.1215   -3.5516    1.1422 O.3       1 <0>         0.0000
     20 O2          9.1542   -6.0643    2.2488 O.2       1 <0>         0.0000
     21 O3          4.7482   -1.1914    0.5542 O.2       1 <0>         0.0000
     22 O4          1.4623   -3.7076    2.4368 O.2       1 <0>         0.0000
     23 H1          7.1822   -6.1611    1.8109 H         1 <0>         0.0000
     24 H2          6.4006   -2.4456    5.0885 H         1 <0>         0.0000
     25 H3          4.8609   -2.6219    4.2310 H         1 <0>         0.0000
     26 H4          5.1097   -1.2817    5.3659 H         1 <0>         0.0000
     27 H5          7.9623   -0.4436    4.5008 H         1 <0>         0.0000
     28 H6          7.4545    0.6861    3.2321 H         1 <0>         0.0000
     29 H7          6.5886    0.6429    4.7727 H         1 <0>         0.0000
     30 H8          3.3133   -2.7845   -2.2720 H         1 <0>         0.0000
     31 H9          2.9723   -4.4622   -2.7277 H         1 <0>         0.0000
     32 H10         4.1465   -4.1154   -1.4578 H         1 <0>         0.0000
     33 H11         1.1705   -5.4095    0.4319 H         1 <0>         0.0000
     34 H12         2.8879   -5.6535    0.1281 H         1 <0>         0.0000
     35 H13         1.7055   -5.9859   -1.1517 H         1 <0>         0.0000
     36 H14        -0.0909   -3.4848   -0.7807 H         1 <0>         0.0000
     37 H15         0.4812   -4.1517   -2.3109 H         1 <0>         0.0000
     38 H16         0.7762   -2.4505   -1.9146 H         1 <0>         0.0000
     39 H17        -1.4589   -2.3023    2.1044 H         1 <0>         0.0000
     40 H18        -0.8634   -0.6562    2.4133 H         1 <0>         0.0000
     41 H19        -0.2264   -2.0222    3.3542 H         1 <0>         0.0000
     42 H20         7.7322   -2.3581    2.8457 H         1 <0>         0.0000
     43 H21         7.2705   -1.1813    1.6250 H         1 <0>         0.0000
     44 H22         6.1970   -4.5521    0.2444 H         1 <0>         0.0000
     45 H23         7.1292   -3.1080   -0.1699 H         1 <0>         0.0000
     46 H24         5.6479   -3.6501    2.4472 H         1 <0>         0.0000
     47 H25         2.5279   -1.8729   -0.0129 H         1 <0>         0.0000
     48 H26         5.2955   -0.5008    2.9986 H         1 <0>         0.0000
     49 H27         0.4960   -1.2867    0.5777 H         1 <0>         0.0000
     50 H28         3.8157   -4.1378    1.3829 H         1 <0>         0.0000
@<TRIPOS>BOND
     1    1   18 am
     2    1   20 2
     3    2   12 1
     4    2   17 am
     5    2   21 2
     6    3   13 1
     7    3   16 am
     8    3   22 2
     9    4   14 1
    10    5   14 1
    11    6   15 1
    12    7   15 1
    13    8   15 1
    14    9   16 1
    15   10   12 1
    16   10   14 1
    17   11   12 1
    18   11   18 1
    19   13   15 1
    20   13   17 1
    21   18   19 1
    22    1   23 1
    23    4   24 1
    24    4   25 1
    25    4   26 1
    26    5   27 1
    27    5   28 1
    28    5   29 1
    29    6   30 1
    30    6   31 1
    31    6   32 1
    32    7   33 1
    33    7   34 1
    34    7   35 1
    35    8   36 1
    36    8   37 1
    37    8   38 1
    38    9   39 1
    39    9   40 1
    40    9   41 1
    41   10   42 1
    42   10   43 1
    43   11   44 1
    44   11   45 1
    45   12   46 1
    46   13   47 1
    47   14   48 1
    48   16   49 1
    49   17   50 1
@<TRIPOS>MOLECULE
LIGAND
   50    49     0     0     0
SMALL
NO_CHARGES

@<TRIPOS>ATOM
      1 C1          8.1233   -5.5837    1.7875 C.2       1 <0>         0.0000
      2 C2          4.7609   -2.3304    1.0158 C.2       1 <0>         0.0000
      3 C3          1.6238   -2.1763    1.4428 C.2       1 <0>         0.0000
      4 C4          5.5916   -1.8934    4.5978 C.3       1 <0>         0.0000
      5 C5          7.0929    0.0222    4.0244 C.3       1 <0>         0.0000
      6 C6          2.6382   -4.8237   -1.2732 C.3       1 <0>         0.0000
      7 C7          1.4139   -5.1834    0.8654 C.3       1 <0>         0.0000
      8 C8          0.3871   -3.7862   -0.9377 C.3       1 <0>         0.0000
      9 C9          0.0532   -0.2939    1.7895 C.3       1 <0>         0.0000
     10 C10         6.8665   -1.8668    2.3816 C.3       1 <0>         0.0000
     11 C11         6.8055   -3.7427    0.6616 C.3       1 <0>         0.0000
     12 C12         5.9953   -2.9363    1.6910 C.3       1 <0>         0.0000
     13 C13         2.4245   -2.8999    0.3599 C.3       1 <0>         0.0000
     14 C14         6.1374   -1.0321    3.4575 C.3       1 <0>         0.0000
     15 C15         1.7114   -4.1488   -0.2382 C.3       1 <0>         0.0000
     16 N1          0.8675   -1.1285    0.9389 N.am      1 <0>         0.0000
     17 N2          3.6959   -3.2182    0.9688 N.am      1 <0>         0.0000
     18 N3          7.9912   -4.3422    1.2125 N.am      1 <0>         0.0000
     19 O1          9.1215   -3.5516    1.1422 O.3       1 <0>         0.0000
     20 O2          9.1542   -6.0643    2.2488 O.2       1 <0>         0.0000
     21 O3          4.7482   -1.1914    0.5542 O.2       1 <0>         0.0000
     22 O4          1.6741   -2.4892    2.6314 O.2       1 <0>         0.0000
     23 H1          7.1822   -6.1611    1.8109 H         1 <0>         0.0000
     24 H2          6.4006   -2.4456    5.0885 H         1 <0>         0.0000
     25 H3          4.8609   -2.6219    4.2310 H         1 <0>         0.0000
     26 H4          5.1097   -1.2817    5.3659 H         1 <0>         0.0000
     27 H5          7.9623   -0.4436    4.5008 H         1 <0>         0.0000
     28 H6          7.4545    0.6861    3.2321 H         1 <0>         0.0000
     29 H7          6.5886    0.6429    4.7727 H         1 <0>         0.0000
     30 H8          2.8872   -4.1345   -2.0879 H         1 <0>         0.0000
     31 H9          2.1738   -5.7124   -1.7140 H         1 <0>         0.0000
     32 H10         3.5794   -5.1449   -0.8119 H         1 <0>         0.0000
     33 H11         0.7565   -4.7621    1.6349 H         1 <0>         0.0000
     34 H12         2.3282   -5.5113    1.3711 H         1 <0>         0.0000
     35 H13         0.9158   -6.0685    0.4541 H         1 <0>         0.0000
     36 H14        -0.3050   -3.3025   -0.2384 H         1 <0>         0.0000
     37 H15        -0.1179   -4.6740   -1.3329 H         1 <0>         0.0000
     38 H16         0.5457   -3.0900   -1.7676 H         1 <0>         0.0000
     39 H17        -0.9522   -0.7139    1.8767 H         1 <0>         0.0000
     40 H18        -0.0213    0.7135    1.3710 H         1 <0>         0.0000
     41 H19         0.4945   -0.2269    2.7876 H         1 <0>         0.0000
     42 H20         7.7322   -2.3581    2.8457 H         1 <0>         0.0000
     43 H21         7.2705   -1.1813    1.6250 H         1 <0>         0.0000
     44 H22         6.1970   -4.5521    0.2444 H         1 <0>         0.0000
     45 H23         7.1292   -3.1080   -0.1699 H         1 <0>         0.0000
     46 H24         5.6479   -3.6501    2.4472 H         1 <0>         0.0000
     47 H25         2.6549   -2.1876   -0.4426 H         1 <0>         0.0000
     48 H26         5.2955   -0.5008    2.9986 H         1 <0>         0.0000
     49 H27         0.8872   -0.9429   -0.0594 H         1 <0>         0.0000
     50 H28         3.8157   -4.1378    1.3829 H         1 <0>         0.0000
@<TRIPOS>BOND
     1    1   18 am
     2    1   20 2
     3    2   12 1
     4    2   17 am
     5    2   21 2
     6    3   13 1
     7    3   16 am
     8    3   22 2
     9    4   14 1
    10    5   14 1
    11    6   15 1
    12    7   15 1
    13    8   15 1
    14    9   16 1
    15   10   12 1
    16   10   14 1
    17   11   12 1
    18   11   18 1
    19   13   15 1
    20   13   17 1
    21   18   19 1
    22    1   23 1
    23    4   24 1
    24    4   25 1
    25    4   26 1
    26    5   27 1
    27    5   28 1
    28    5   29 1
    29    6   30 1
    30    6   31 1
    31    6   32 1
    32    7   33 1
    33    7   34 1
    34    7   35 1
    35    8   36 1
    36    8   37 1
    37    8   38 1
    38    9   39 1
    39    9   40 1
    40    9   41 1
    41   10   42 1
    42   10   43 1
    43   11   44 1
    44   11   45 1
    45   12   46 1
    46   13   47 1
    47   14   48 1
    48   16   49 1
    49   17   50 1
@<TRIPOS>MOLECULE
LIGAND
   50    49     0     0     0
SMALL
NO_CHARGES

@<TRIPOS>ATOM
      1 C1          7.7057   -5.3322    2.8533 C.2       1 <0>         0.0000
      2 C2          4.7609   -2.3304    1.0158 C.2       1 <0>         0.0000
      3 C3          1.3743   -3.6105    1.2141 C.2       1 <0>         0.0000
      4 C4          7.0285   -1.4411    4.2202 C.3       1 <0>         0.0000
      5 C5          8.3048    0.0740    2.6945 C.3       1 <0>         0.0000
      6 C6          3.5112   -2.5312   -1.8976 C.3       1 <0>         0.0000
      7 C7          2.5798   -4.7765   -1.3563 C.3       1 <0>         0.0000
      8 C8          1.0336   -2.8618   -1.8044 C.3       1 <0>         0.0000
      9 C9         -0.8899   -3.3247    2.1744 C.3       1 <0>         0.0000
     10 C10         7.1850   -1.9548    1.7203 C.3       1 <0>         0.0000
     11 C11         6.3716   -4.2554    0.9948 C.3       1 <0>         0.0000
     12 C12         5.9953   -2.9363    1.6910 C.3       1 <0>         0.0000
     13 C13         2.4245   -2.8999    0.3599 C.3       1 <0>         0.0000
     14 C14         7.0962   -0.8603    2.8067 C.3       1 <0>         0.0000
     15 C15         2.3718   -3.2623   -1.1540 C.3       1 <0>         0.0000
     16 N1          0.2223   -2.8565    1.3827 N.am      1 <0>         0.0000
     17 N2          3.6959   -3.2182    0.9688 N.am      1 <0>         0.0000
     18 N3          7.5302   -4.8900    1.5637 N.am      1 <0>         0.0000
     19 O1          8.5809   -5.0641    0.6843 O.3       1 <0>         0.0000
     20 O2          6.8854   -5.2605    3.7635 O.2       1 <0>         0.0000
     21 O3          4.7482   -1.1914    0.5542 O.2       1 <0>         0.0000
     22 O4          1.5569   -4.7218    1.7089 O.2       1 <0>         0.0000
     23 H1          8.6962   -5.7866    3.0326 H         1 <0>         0.0000
     24 H2          7.9109   -2.0554    4.4301 H         1 <0>         0.0000
     25 H3          6.1416   -2.0705    4.3492 H         1 <0>         0.0000
     26 H4          7.0010   -0.6512    4.9764 H         1 <0>         0.0000
     27 H5          9.2434   -0.4691    2.8487 H         1 <0>         0.0000
     28 H6          8.3428    0.5443    1.7062 H         1 <0>         0.0000
     29 H7          8.2495    0.8738    3.4405 H         1 <0>         0.0000
     30 H8          3.4182   -1.4447   -1.7906 H         1 <0>         0.0000
     31 H9          3.5120   -2.7653   -2.9677 H         1 <0>         0.0000
     32 H10         4.4918   -2.8203   -1.5020 H         1 <0>         0.0000
     33 H11         1.7979   -5.3538   -0.8491 H         1 <0>         0.0000
     34 H12         3.5395   -5.1121   -0.9494 H         1 <0>         0.0000
     35 H13         2.5489   -5.0416   -2.4191 H         1 <0>         0.0000
     36 H14         0.1926   -3.3589   -1.3070 H         1 <0>         0.0000
     37 H15         0.9978   -3.1431   -2.8622 H         1 <0>         0.0000
     38 H16         0.8573   -1.7835   -1.7352 H         1 <0>         0.0000
     39 H17        -1.5882   -3.8849    1.5471 H         1 <0>         0.0000
     40 H18        -1.4189   -2.4783    2.6208 H         1 <0>         0.0000
     41 H19        -0.5348   -3.9781    2.9759 H         1 <0>         0.0000
     42 H20         8.1124   -2.5237    1.8705 H         1 <0>         0.0000
     43 H21         7.2788   -1.4660    0.7417 H         1 <0>         0.0000
     44 H22         5.5455   -4.9716    1.0590 H         1 <0>         0.0000
     45 H23         6.5888   -4.0932   -0.0661 H         1 <0>         0.0000
     46 H24         5.7229   -3.1911    2.7220 H         1 <0>         0.0000
     47 H25         2.3043   -1.8161    0.4837 H         1 <0>         0.0000
     48 H26         6.1964   -0.2560    2.6429 H         1 <0>         0.0000
     49 H27         0.1595   -1.9470    0.9352 H         1 <0>         0.0000
     50 H28         3.8157   -4.1378    1.3829 H         1 <0>         0.0000
@<TRIPOS>BOND
     1    1   18 am
     2    1   20 2
     3    2   12 1
     4    2   17 am
     5    2   21 2
     6    3   13 1
     7    3   16 am
     8    3   22 2
     9    4   14 1
    10    5   14 1
    11    6   15 1
    12    7   15 1
    13    8   15 1
    14    9   16 1
    15   10   12 1
    16   10   14 1
    17   11   12 1
    18   11   18 1
    19   13   15 1
    20   13   17 1
    21   18   19 1
    22    1   23 1
    23    4   24 1
    24    4   25 1
    25    4   26 1
    26    5   27 1
    27    5   28 1
    28    5   29 1
    29    6   30 1
    30    6   31 1
    31    6   32 1
    32    7   33 1
    33    7   34 1
    34    7   35 1
    35    8   36 1
    36    8   37 1
    37    8   38 1
    38    9   39 1
    39    9   40 1
    40    9   41 1
    41   10   42 1
    42   10   43 1
    43   11   44 1
    44   11   45 1
    45   12   46 1
    46   13   47 1
    47   14   48 1
    48   16   49 1
    49   17   50 1
@<TRIPOS>MOLECULE
LIGAND
   50    49     0     0     0
SMALL
NO_CHARGES

@<TRIPOS>ATOM
      1 C1          9.2881   -3.7695    1.7893 C.2       1 <0>         0.0000
      2 C2          4.7609   -2.3304    1.0158 C.2       1 <0>         0.0000
      3 C3          1.4114   -2.9063    1.5049 C.2       1 <0>         0.0000
      4 C4          4.8998   -3.3220    4.5808 C.3       1 <0>         0.0000
      5 C5          5.9126   -1.1117    5.1647 C.3       1 <0>         0.0000
      6 C6          3.1857   -3.8003   -1.8813 C.3       1 <0>         0.0000
      7 C7          1.9543   -5.3076   -0.3278 C.3       1 <0>         0.0000
      8 C8          0.7370   -3.4626   -1.4991 C.3       1 <0>         0.0000
      9 C9          1.0123   -1.9958    3.7725 C.3       1 <0>         0.0000
     10 C10         6.4405   -2.1272    2.9267 C.3       1 <0>         0.0000
     11 C11         7.1342   -3.0688    0.6654 C.3       1 <0>         0.0000
     12 C12         5.9953   -2.9363    1.6910 C.3       1 <0>         0.0000
     13 C13         2.4245   -2.8999    0.3599 C.3       1 <0>         0.0000
     14 C14         5.3645   -1.9750    4.0244 C.3       1 <0>         0.0000
     15 C15         2.0646   -3.8508   -0.8201 C.3       1 <0>         0.0000
     16 N1          1.8071   -2.1159    2.5738 N.am      1 <0>         0.0000
     17 N2          3.6959   -3.2182    0.9688 N.am      1 <0>         0.0000
     18 N3          8.1489   -4.0093    1.0586 N.am      1 <0>         0.0000
     19 O1          7.9264   -5.3055    0.6367 O.3       1 <0>         0.0000
     20 O2          9.6450   -2.6864    2.2434 O.2       1 <0>         0.0000
     21 O3          4.7482   -1.1914    0.5542 O.2       1 <0>         0.0000
     22 O4          0.3728   -3.5647    1.4736 O.2       1 <0>         0.0000
     23 H1          9.9041   -4.6711    1.9543 H         1 <0>         0.0000
     24 H2          5.7423   -3.8772    5.0075 H         1 <0>         0.0000
     25 H3          4.4501   -3.9417    3.7978 H         1 <0>         0.0000
     26 H4          4.1642   -3.1925    5.3800 H         1 <0>         0.0000
     27 H5          6.7922   -1.5734    5.6261 H         1 <0>         0.0000
     28 H6          6.2016   -0.1209    4.7985 H         1 <0>         0.0000
     29 H7          5.1564   -0.9697    5.9440 H         1 <0>         0.0000
     30 H8          3.3133   -2.7845   -2.2720 H         1 <0>         0.0000
     31 H9          2.9723   -4.4622   -2.7277 H         1 <0>         0.0000
     32 H10         4.1465   -4.1154   -1.4578 H         1 <0>         0.0000
     33 H11         1.1705   -5.4095    0.4319 H         1 <0>         0.0000
     34 H12         2.8879   -5.6535    0.1281 H         1 <0>         0.0000
     35 H13         1.7055   -5.9859   -1.1517 H         1 <0>         0.0000
     36 H14        -0.0909   -3.4848   -0.7807 H         1 <0>         0.0000
     37 H15         0.4812   -4.1517   -2.3109 H         1 <0>         0.0000
     38 H16         0.7762   -2.4505   -1.9146 H         1 <0>         0.0000
     39 H17         0.3100   -1.1637    3.6759 H         1 <0>         0.0000
     40 H18         1.6568   -1.8137    4.6368 H         1 <0>         0.0000
     41 H19         0.4467   -2.9155    3.9448 H         1 <0>         0.0000
     42 H20         7.3251   -2.6069    3.3666 H         1 <0>         0.0000
     43 H21         6.7588   -1.1249    2.6110 H         1 <0>         0.0000
     44 H22         6.7419   -3.4007   -0.3017 H         1 <0>         0.0000
     45 H23         7.6368   -2.1087    0.5083 H         1 <0>         0.0000
     46 H24         5.7385   -3.9535    2.0094 H         1 <0>         0.0000
     47 H25         2.5279   -1.8729   -0.0129 H         1 <0>         0.0000
     48 H26         4.4913   -1.4577    3.6101 H         1 <0>         0.0000
     49 H27         2.6832   -1.6060    2.5111 H         1 <0>         0.0000
     50 H28         3.8157   -4.1378    1.3829 H         1 <0>         0.0000
@<TRIPOS>BOND
     1    1   18 am
     2    1   20 2
     3    2   12 1
     4    2   17 am
     5    2   21 2
     6    3   13 1
     7    3   16 am
     8    3   22 2
     9    4   14 1
    10    5   14 1
    11    6   15 1
    12    7   15 1
    13    8   15 1
    14    9   16 1
    15   10   12 1
    16   10   14 1
    17   11   12 1
    18   11   18 1
    19   13   15 1
    20   13   17 1
    21   18   19 1
    22    1   23 1
    23    4   24 1
    24    4   25 1
    25    4   26 1
    26    5   27 1
    27    5   28 1
    28    5   29 1
    29    6   30 1
    30    6   31 1
    31    6   32 1
    32    7   33 1
    33    7   34 1
    34    7   35 1
    35    8   36 1
    36    8   37 1
    37    8   38 1
    38    9   39 1
    39    9   40 1
    40    9   41 1
    41   10   42 1
    42   10   43 1
    43   11   44 1
    44   11   45 1
    45   12   46 1
    46   13   47 1
    47   14   48 1
    48   16   49 1
    49   17   50 1
@<TRIPOS>MOLECULE
LIGAND
   50    49     0     0     0
SMALL
NO_CHARGES

@<TRIPOS>ATOM
      1 C1          7.3043   -2.3507   -1.3895 C.2       1 <0>         0.0000
      2 C2          4.7609   -2.3304    1.0158 C.2       1 <0>         0.0000
      3 C3          1.6238   -2.1763    1.4428 C.2       1 <0>         0.0000
      4 C4          5.5916   -1.8934    4.5978 C.3       1 <0>         0.0000
      5 C5          7.0929    0.0222    4.0244 C.3       1 <0>         0.0000
      6 C6          2.6382   -4.8237   -1.2732 C.3       1 <0>         0.0000
      7 C7          1.4139   -5.1834    0.8654 C.3       1 <0>         0.0000
      8 C8          0.3871   -3.7862   -0.9377 C.3       1 <0>         0.0000
      9 C9          0.0532   -0.2939    1.7895 C.3       1 <0>         0.0000
     10 C10         6.8665   -1.8668    2.3816 C.3       1 <0>         0.0000
     11 C11         6.8055   -3.7427    0.6616 C.3       1 <0>         0.0000
     12 C12         5.9953   -2.9363    1.6910 C.3       1 <0>         0.0000
     13 C13         2.4245   -2.8999    0.3599 C.3       1 <0>         0.0000
     14 C14         6.1374   -1.0321    3.4575 C.3       1 <0>         0.0000
     15 C15         1.7114   -4.1488   -0.2382 C.3       1 <0>         0.0000
     16 N1          0.8675   -1.1285    0.9389 N.am      1 <0>         0.0000
     17 N2          3.6959   -3.2182    0.9688 N.am      1 <0>         0.0000
     18 N3          7.6315   -2.9222   -0.1830 N.am      1 <0>         0.0000
     19 O1          8.9050   -2.6967    0.3017 O.3       1 <0>         0.0000
     20 O2          8.0369   -1.6539   -2.0854 O.2       1 <0>         0.0000
     21 O3          4.7482   -1.1914    0.5542 O.2       1 <0>         0.0000
     22 O4          1.6741   -2.4892    2.6314 O.2       1 <0>         0.0000
     23 H1          6.2729   -2.5716   -1.7167 H         1 <0>         0.0000
     24 H2          6.4006   -2.4456    5.0885 H         1 <0>         0.0000
     25 H3          4.8609   -2.6219    4.2310 H         1 <0>         0.0000
     26 H4          5.1097   -1.2817    5.3659 H         1 <0>         0.0000
     27 H5          7.9623   -0.4436    4.5008 H         1 <0>         0.0000
     28 H6          7.4545    0.6861    3.2321 H         1 <0>         0.0000
     29 H7          6.5886    0.6429    4.7727 H         1 <0>         0.0000
     30 H8          2.8872   -4.1345   -2.0879 H         1 <0>         0.0000
     31 H9          2.1738   -5.7124   -1.7140 H         1 <0>         0.0000
     32 H10         3.5794   -5.1449   -0.8119 H         1 <0>         0.0000
     33 H11         0.7565   -4.7621    1.6349 H         1 <0>         0.0000
     34 H12         2.3282   -5.5113    1.3711 H         1 <0>         0.0000
     35 H13         0.9158   -6.0685    0.4541 H         1 <0>         0.0000
     36 H14        -0.3050   -3.3025   -0.2384 H         1 <0>         0.0000
     37 H15        -0.1179   -4.6740   -1.3329 H         1 <0>         0.0000
     38 H16         0.5457   -3.0900   -1.7676 H         1 <0>         0.0000
     39 H17        -0.9522   -0.7139    1.8767 H         1 <0>         0.0000
     40 H18        -0.0213    0.7135    1.3710 H         1 <0>         0.0000
     41 H19         0.4945   -0.2269    2.7876 H         1 <0>         0.0000
     42 H20         7.7322   -2.3581    2.8457 H         1 <0>         0.0000
     43 H21         7.2705   -1.1813    1.6250 H         1 <0>         0.0000
     44 H22         7.4659   -4.4552    1.1672 H         1 <0>         0.0000
     45 H23         6.1454   -4.3134    0.0001 H         1 <0>         0.0000
     46 H24         5.6479   -3.6501    2.4472 H         1 <0>         0.0000
     47 H25         2.6549   -2.1876   -0.4426 H         1 <0>         0.0000
     48 H26         5.2955   -0.5008    2.9986 H         1 <0>         0.0000
     49 H27         0.8872   -0.9429   -0.0594 H         1 <0>         0.0000
     50 H28         3.8157   -4.1378    1.3829 H         1 <0>         0.0000
@<TRIPOS>BOND
     1    1   18 am
     2    1   20 2
     3    2   12 1
     4    2   17 am
     5    2   21 2
     6    3   13 1
     7    3   16 am
     8    3   22 2
     9    4   14 1
    10    5   14 1
    11    6   15 1
    12    7   15 1
    13    8   15 1
    14    9   16 1
    15   10   12 1
    16   10   14 1
    17   11   12 1
    18   11   18 1
    19   13   15 1
    20   13   17 1
    21   18   19 1
    22    1   23 1
    23    4   24 1
    24    4   25 1
    25    4   26 1
    26    5   27 1
    27    5   28 1
    28    5   29 1
    29    6   30 1
    30    6   31 1
    31    6   32 1
    32    7   33 1
    33    7   34 1
    34    7   35 1
    35    8   36 1
    36    8   37 1
    37    8   38 1
    38    9   39 1
    39    9   40 1
    40    9   41 1
    41   10   42 1
    42   10   43 1
    43   11   44 1
    44   11   45 1
    45   12   46 1
    46   13   47 1
    47   14   48 1
    48   16   49 1
    49   17   50 1
@<TRIPOS>MOLECULE
LIGAND
   50    49     0     0     0
SMALL
NO_CHARGES

@<TRIPOS>ATOM
      1 C1          9.5089   -2.2247    2.1640 C.2       1 <0>         0.0000
      2 C2          4.7609   -2.3304    1.0158 C.2       1 <0>         0.0000
      3 C3          1.6238   -2.1763    1.4428 C.2       1 <0>         0.0000
      4 C4          5.4286   -5.0551    3.9022 C.3       1 <0>         0.0000
      5 C5          5.1681   -3.1669    5.5205 C.3       1 <0>         0.0000
      6 C6          2.6382   -4.8237   -1.2732 C.3       1 <0>         0.0000
      7 C7          1.4139   -5.1834    0.8654 C.3       1 <0>         0.0000
      8 C8          0.3871   -3.7862   -0.9377 C.3       1 <0>         0.0000
      9 C9          0.7109    0.0436    2.0502 C.3       1 <0>         0.0000
     10 C10         6.0212   -2.6662    3.2096 C.3       1 <0>         0.0000
     11 C11         7.2695   -2.4142    1.0053 C.3       1 <0>         0.0000
     12 C12         5.9953   -2.9363    1.6910 C.3       1 <0>         0.0000
     13 C13         2.4245   -2.8999    0.3599 C.3       1 <0>         0.0000
     14 C14         5.0884   -3.5706    4.0452 C.3       1 <0>         0.0000
     15 C15         1.7114   -4.1488   -0.2382 C.3       1 <0>         0.0000
     16 N1          1.4216   -0.8351    1.1525 N.am      1 <0>         0.0000
     17 N2          3.6959   -3.2182    0.9688 N.am      1 <0>         0.0000
     18 N3          8.4808   -2.9296    1.5848 N.am      1 <0>         0.0000
     19 O1          8.6000   -4.3050    1.5405 O.3       1 <0>         0.0000
     20 O2          9.5729   -1.0054    2.2897 O.2       1 <0>         0.0000
     21 O3          4.7482   -1.1914    0.5542 O.2       1 <0>         0.0000
     22 O4          1.2284   -2.7340    2.4655 O.2       1 <0>         0.0000
     23 H1         10.3290   -2.8651    2.5342 H         1 <0>         0.0000
     24 H2          6.4596   -5.2491    4.2175 H         1 <0>         0.0000
     25 H3          5.3256   -5.3883    2.8641 H         1 <0>         0.0000
     26 H4          4.7804   -5.6761    4.5273 H         1 <0>         0.0000
     27 H5          6.1838   -3.2884    5.9121 H         1 <0>         0.0000
     28 H6          4.8754   -2.1200    5.6540 H         1 <0>         0.0000
     29 H7          4.4947   -3.7797    6.1290 H         1 <0>         0.0000
     30 H8          2.8872   -4.1345   -2.0879 H         1 <0>         0.0000
     31 H9          2.1738   -5.7124   -1.7140 H         1 <0>         0.0000
     32 H10         3.5794   -5.1449   -0.8119 H         1 <0>         0.0000
     33 H11         0.7565   -4.7621    1.6349 H         1 <0>         0.0000
     34 H12         2.3282   -5.5113    1.3711 H         1 <0>         0.0000
     35 H13         0.9158   -6.0685    0.4541 H         1 <0>         0.0000
     36 H14        -0.3050   -3.3025   -0.2384 H         1 <0>         0.0000
     37 H15        -0.1179   -4.6740   -1.3329 H         1 <0>         0.0000
     38 H16         0.5457   -3.0900   -1.7676 H         1 <0>         0.0000
     39 H17        -0.3565    0.0379    1.8148 H         1 <0>         0.0000
     40 H18         1.0868    1.0659    1.9547 H         1 <0>         0.0000
     41 H19         0.8449   -0.2838    3.0846 H         1 <0>         0.0000
     42 H20         7.0493   -2.7891    3.5757 H         1 <0>         0.0000
     43 H21         5.7503   -1.6191    3.3985 H         1 <0>         0.0000
     44 H22         7.2745   -2.6901   -0.0546 H         1 <0>         0.0000
     45 H23         7.3301   -1.3226    1.0647 H         1 <0>         0.0000
     46 H24         5.9704   -4.0198    1.5260 H         1 <0>         0.0000
     47 H25         2.6549   -2.1876   -0.4426 H         1 <0>         0.0000
     48 H26         4.0519   -3.4254    3.7195 H         1 <0>         0.0000
     49 H27         1.7849   -0.4599    0.2815 H         1 <0>         0.0000
     50 H28         3.8157   -4.1378    1.3829 H         1 <0>         0.0000
@<TRIPOS>BOND
     1    1   18 am
     2    1   20 2
     3    2   12 1
     4    2   17 am
     5    2   21 2
     6    3   13 1
     7    3   16 am
     8    3   22 2
     9    4   14 1
    10    5   14 1
    11    6   15 1
    12    7   15 1
    13    8   15 1
    14    9   16 1
    15   10   12 1
    16   10   14 1
    17   11   12 1
    18   11   18 1
    19   13   15 1
    20   13   17 1
    21   18   19 1
    22    1   23 1
    23    4   24 1
    24    4   25 1
    25    4   26 1
    26    5   27 1
    27    5   28 1
    28    5   29 1
    29    6   30 1
    30    6   31 1
    31    6   32 1
    32    7   33 1
    33    7   34 1
    34    7   35 1
    35    8   36 1
    36    8   37 1
    37    8   38 1
    38    9   39 1
    39    9   40 1
    40    9   41 1
    41   10   42 1
    42   10   43 1
    43   11   44 1
    44   11   45 1
    45   12   46 1
    46   13   47 1
    47   14   48 1
    48   16   49 1
    49   17   50 1
@<TRIPOS>MOLECULE
LIGAND
   50    49     0     0     0
SMALL
NO_CHARGES

@<TRIPOS>ATOM
      1 C1          7.5576   -2.3672    4.6544 C.2       1 <0>         0.0000
      2 C2          4.7609   -2.3304    1.0158 C.2       1 <0>         0.0000
      3 C3          1.4114   -2.9063    1.5049 C.2       1 <0>         0.0000
      4 C4          7.9668   -2.9805   -0.7195 C.3       1 <0>         0.0000
      5 C5          7.2752   -5.3485   -1.1277 C.3       1 <0>         0.0000
      6 C6          2.6765   -3.3019   -2.1277 C.3       1 <0>         0.0000
      7 C7          2.6544   -5.2554   -0.5834 C.3       1 <0>         0.0000
      8 C8          0.5425   -3.9869   -1.0173 C.3       1 <0>         0.0000
      9 C9         -0.0359   -1.4126    2.8483 C.3       1 <0>         0.0000
     10 C10         6.4903   -4.2069    0.9698 C.3       1 <0>         0.0000
     11 C11         5.6912   -3.2135    3.1734 C.3       1 <0>         0.0000
     12 C12         5.9953   -2.9363    1.6910 C.3       1 <0>         0.0000
     13 C13         2.4245   -2.8999    0.3599 C.3       1 <0>         0.0000
     14 C14         6.8518   -4.0083   -0.5189 C.3       1 <0>         0.0000
     15 C15         2.0646   -3.8508   -0.8201 C.3       1 <0>         0.0000
     16 N1          0.9155   -1.6421    1.7876 N.am      1 <0>         0.0000
     17 N2          3.6959   -3.2182    0.9688 N.am      1 <0>         0.0000
     18 N3          6.8729   -3.3510    3.9817 N.am      1 <0>         0.0000
     19 O1          7.3583   -4.6406    4.0766 O.3       1 <0>         0.0000
     20 O2          7.2727   -1.1736    4.6825 O.2       1 <0>         0.0000
     21 O3          4.7482   -1.1914    0.5542 O.2       1 <0>         0.0000
     22 O4          1.0981   -3.9285    2.1133 O.2       1 <0>         0.0000
     23 H1          8.4389   -2.7411    5.2052 H         1 <0>         0.0000
     24 H2          8.8753   -3.2848   -0.1883 H         1 <0>         0.0000
     25 H3          7.6713   -1.9951   -0.3441 H         1 <0>         0.0000
     26 H4          8.2323   -2.8793   -1.7758 H         1 <0>         0.0000
     27 H5          8.1599   -5.7527   -0.6240 H         1 <0>         0.0000
     28 H6          6.4698   -6.0859   -1.0440 H         1 <0>         0.0000
     29 H7          7.5125   -5.2358   -2.1909 H         1 <0>         0.0000
     30 H8          2.2940   -2.2998   -2.3517 H         1 <0>         0.0000
     31 H9          2.4502   -3.9477   -2.9831 H         1 <0>         0.0000
     32 H10         3.7681   -3.2311   -2.0551 H         1 <0>         0.0000
     33 H11         2.2564   -5.7011    0.3358 H         1 <0>         0.0000
     34 H12         3.7440   -5.2254   -0.4780 H         1 <0>         0.0000
     35 H13         2.4105   -5.9315   -1.4105 H         1 <0>         0.0000
     36 H14         0.0636   -4.3749   -0.1106 H         1 <0>         0.0000
     37 H15         0.3004   -4.6763   -1.8330 H         1 <0>         0.0000
     38 H16         0.0759   -3.0219   -1.2405 H         1 <0>         0.0000
     39 H17        -1.0554   -1.5084    2.4658 H         1 <0>         0.0000
     40 H18         0.0924   -0.4080    3.2604 H         1 <0>         0.0000
     41 H19         0.1090   -2.1415    3.6503 H         1 <0>         0.0000
     42 H20         7.3727   -4.5944    1.4964 H         1 <0>         0.0000
     43 H21         5.7222   -4.9884    1.0394 H         1 <0>         0.0000
     44 H22         5.0986   -2.3982    3.6018 H         1 <0>         0.0000
     45 H23         5.1177   -4.1388    3.2917 H         1 <0>         0.0000
     46 H24         6.7931   -2.1847    1.6686 H         1 <0>         0.0000
     47 H25         2.5279   -1.8729   -0.0129 H         1 <0>         0.0000
     48 H26         5.9671   -3.6628   -1.0661 H         1 <0>         0.0000
     49 H27         1.2316   -0.8537    1.2310 H         1 <0>         0.0000
     50 H28         3.8157   -4.1378    1.3829 H         1 <0>         0.0000
@<TRIPOS>BOND
     1    1   18 am
     2    1   20 2
     3    2   12 1
     4    2   17 am
     5    2   21 2
     6    3   13 1
     7    3   16 am
     8    3   22 2
     9    4   14 1
    10    5   14 1
    11    6   15 1
    12    7   15 1
    13    8   15 1
    14    9   16 1
    15   10   12 1
    16   10   14 1
    17   11   12 1
    18   11   18 1
    19   13   15 1
    20   13   17 1
    21   18   19 1
    22    1   23 1
    23    4   24 1
    24    4   25 1
    25    4   26 1
    26    5   27 1
    27    5   28 1
    28    5   29 1
    29    6   30 1
    30    6   31 1
    31    6   32 1
    32    7   33 1
    33    7   34 1
    34    7   35 1
    35    8   36 1
    36    8   37 1
    37    8   38 1
    38    9   39 1
    39    9   40 1
    40    9   41 1
    41   10   42 1
    42   10   43 1
    43   11   44 1
    44   11   45 1
    45   12   46 1
    46   13   47 1
    47   14   48 1
    48   16   49 1
    49   17   50 1
@<TRIPOS>MOLECULE
LIGAND
   50    49     0     0     0
SMALL
NO_CHARGES

@<TRIPOS>ATOM
      1 C1          8.4401   -2.2571   -0.5690 C.2       1 <0>         0.0000
      2 C2          4.7609   -2.3304    1.0158 C.2       1 <0>         0.0000
      3 C3          1.4114   -2.9063    1.5049 C.2       1 <0>         0.0000
      4 C4          5.5916   -1.8934    4.5978 C.3       1 <0>         0.0000
      5 C5          7.0929    0.0222    4.0244 C.3       1 <0>         0.0000
      6 C6          3.1857   -3.8003   -1.8813 C.3       1 <0>         0.0000
      7 C7          1.9543   -5.3076   -0.3278 C.3       1 <0>         0.0000
      8 C8          0.7370   -3.4626   -1.4991 C.3       1 <0>         0.0000
      9 C9         -0.5781   -1.7107    2.3670 C.3       1 <0>         0.0000
     10 C10         6.8665   -1.8668    2.3816 C.3       1 <0>         0.0000
     11 C11         6.8055   -3.7427    0.6616 C.3       1 <0>         0.0000
     12 C12         5.9953   -2.9363    1.6910 C.3       1 <0>         0.0000
     13 C13         2.4245   -2.8999    0.3599 C.3       1 <0>         0.0000
     14 C14         6.1374   -1.0321    3.4575 C.3       1 <0>         0.0000
     15 C15         2.0646   -3.8508   -0.8201 C.3       1 <0>         0.0000
     16 N1          0.4604   -1.9038    1.3835 N.am      1 <0>         0.0000
     17 N2          3.6959   -3.2182    0.9688 N.am      1 <0>         0.0000
     18 N3          7.2606   -2.9528   -0.4510 N.am      1 <0>         0.0000
     19 O1          6.3854   -2.9043   -1.5183 O.3       1 <0>         0.0000
     20 O2          8.7968   -1.5913   -1.5365 O.2       1 <0>         0.0000
     21 O3          4.7482   -1.1914    0.5542 O.2       1 <0>         0.0000
     22 O4          1.4623   -3.7076    2.4368 O.2       1 <0>         0.0000
     23 H1          9.0911   -2.3390    0.3194 H         1 <0>         0.0000
     24 H2          6.4006   -2.4456    5.0885 H         1 <0>         0.0000
     25 H3          4.8609   -2.6219    4.2310 H         1 <0>         0.0000
     26 H4          5.1097   -1.2817    5.3659 H         1 <0>         0.0000
     27 H5          7.9623   -0.4436    4.5008 H         1 <0>         0.0000
     28 H6          7.4545    0.6861    3.2321 H         1 <0>         0.0000
     29 H7          6.5886    0.6429    4.7727 H         1 <0>         0.0000
     30 H8          3.3133   -2.7845   -2.2720 H         1 <0>         0.0000
     31 H9          2.9723   -4.4622   -2.7277 H         1 <0>         0.0000
     32 H10         4.1465   -4.1154   -1.4578 H         1 <0>         0.0000
     33 H11         1.1705   -5.4095    0.4319 H         1 <0>         0.0000
     34 H12         2.8879   -5.6535    0.1281 H         1 <0>         0.0000
     35 H13         1.7055   -5.9859   -1.1517 H         1 <0>         0.0000
     36 H14        -0.0909   -3.4848   -0.7807 H         1 <0>         0.0000
     37 H15         0.4812   -4.1517   -2.3109 H         1 <0>         0.0000
     38 H16         0.7762   -2.4505   -1.9146 H         1 <0>         0.0000
     39 H17        -1.4589   -2.3023    2.1044 H         1 <0>         0.0000
     40 H18        -0.8634   -0.6562    2.4133 H         1 <0>         0.0000
     41 H19        -0.2264   -2.0222    3.3542 H         1 <0>         0.0000
     42 H20         7.7322   -2.3581    2.8457 H         1 <0>         0.0000
     43 H21         7.2705   -1.1813    1.6250 H         1 <0>         0.0000
     44 H22         7.6920   -4.1821    1.1312 H         1 <0>         0.0000
     45 H23         6.2097   -4.5617    0.2452 H         1 <0>         0.0000
     46 H24         5.6479   -3.6501    2.4472 H         1 <0>         0.0000
     47 H25         2.5279   -1.8729   -0.0129 H         1 <0>         0.0000
     48 H26         5.2955   -0.5008    2.9986 H         1 <0>         0.0000
     49 H27         0.4960   -1.2867    0.5777 H         1 <0>         0.0000
     50 H28         3.8157   -4.1378    1.3829 H         1 <0>         0.0000
@<TRIPOS>BOND
     1    1   18 am
     2    1   20 2
     3    2   12 1
     4    2   17 am
     5    2   21 2
     6    3   13 1
     7    3   16 am
     8    3   22 2
     9    4   14 1
    10    5   14 1
    11    6   15 1
    12    7   15 1
    13    8   15 1
    14    9   16 1
    15   10   12 1
    16   10   14 1
    17   11   12 1
    18   11   18 1
    19   13   15 1
    20   13   17 1
    21   18   19 1
    22    1   23 1
    23    4   24 1
    24    4   25 1
    25    4   26 1
    26    5   27 1
    27    5   28 1
    28    5   29 1
    29    6   30 1
    30    6   31 1
    31    6   32 1
    32    7   33 1
    33    7   34 1
    34    7   35 1
    35    8   36 1
    36    8   37 1
    37    8   38 1
    38    9   39 1
    39    9   40 1
    40    9   41 1
    41   10   42 1
    42   10   43 1
    43   11   44 1
    44   11   45 1
    45   12   46 1
    46   13   47 1
    47   14   48 1
    48   16   49 1
    49   17   50 1
@<TRIPOS>MOLECULE
LIGAND
   50    49     0     0     0
SMALL
NO_CHARGES

@<TRIPOS>ATOM
      1 C1          7.5576   -2.3672    4.6544 C.2       1 <0>         0.0000
      2 C2          4.7609   -2.3304    1.0158 C.2       1 <0>         0.0000
      3 C3          1.4114   -2.9063    1.5049 C.2       1 <0>         0.0000
      4 C4          7.9668   -2.9805   -0.7195 C.3       1 <0>         0.0000
      5 C5          7.2752   -5.3485   -1.1277 C.3       1 <0>         0.0000
      6 C6          3.1857   -3.8003   -1.8813 C.3       1 <0>         0.0000
      7 C7          1.9543   -5.3076   -0.3278 C.3       1 <0>         0.0000
      8 C8          0.7370   -3.4626   -1.4991 C.3       1 <0>         0.0000
      9 C9         -0.5781   -1.7107    2.3670 C.3       1 <0>         0.0000
     10 C10         6.4903   -4.2069    0.9698 C.3       1 <0>         0.0000
     11 C11         5.6912   -3.2135    3.1734 C.3       1 <0>         0.0000
     12 C12         5.9953   -2.9363    1.6910 C.3       1 <0>         0.0000
     13 C13         2.4245   -2.8999    0.3599 C.3       1 <0>         0.0000
     14 C14         6.8518   -4.0083   -0.5189 C.3       1 <0>         0.0000
     15 C15         2.0646   -3.8508   -0.8201 C.3       1 <0>         0.0000
     16 N1          0.4604   -1.9038    1.3835 N.am      1 <0>         0.0000
     17 N2          3.6959   -3.2182    0.9688 N.am      1 <0>         0.0000
     18 N3          6.8729   -3.3510    3.9817 N.am      1 <0>         0.0000
     19 O1          7.3583   -4.6406    4.0766 O.3       1 <0>         0.0000
     20 O2          8.5660   -2.5212    5.3371 O.2       1 <0>         0.0000
     21 O3          4.7482   -1.1914    0.5542 O.2       1 <0>         0.0000
     22 O4          1.4623   -3.7076    2.4368 O.2       1 <0>         0.0000
     23 H1          7.1157   -1.3621    4.5352 H         1 <0>         0.0000
     24 H2          8.8753   -3.2848   -0.1883 H         1 <0>         0.0000
     25 H3          7.6713   -1.9951   -0.3441 H         1 <0>         0.0000
     26 H4          8.2323   -2.8793   -1.7758 H         1 <0>         0.0000
     27 H5          8.1599   -5.7527   -0.6240 H         1 <0>         0.0000
     28 H6          6.4698   -6.0859   -1.0440 H         1 <0>         0.0000
     29 H7          7.5125   -5.2358   -2.1909 H         1 <0>         0.0000
     30 H8          3.3133   -2.7845   -2.2720 H         1 <0>         0.0000
     31 H9          2.9723   -4.4622   -2.7277 H         1 <0>         0.0000
     32 H10         4.1465   -4.1154   -1.4578 H         1 <0>         0.0000
     33 H11         1.1705   -5.4095    0.4319 H         1 <0>         0.0000
     34 H12         2.8879   -5.6535    0.1281 H         1 <0>         0.0000
     35 H13         1.7055   -5.9859   -1.1517 H         1 <0>         0.0000
     36 H14        -0.0909   -3.4848   -0.7807 H         1 <0>         0.0000
     37 H15         0.4812   -4.1517   -2.3109 H         1 <0>         0.0000
     38 H16         0.7762   -2.4505   -1.9146 H         1 <0>         0.0000
     39 H17        -1.4589   -2.3023    2.1044 H         1 <0>         0.0000
     40 H18        -0.8634   -0.6562    2.4133 H         1 <0>         0.0000
     41 H19        -0.2264   -2.0222    3.3542 H         1 <0>         0.0000
     42 H20         7.3727   -4.5944    1.4964 H         1 <0>         0.0000
     43 H21         5.7222   -4.9884    1.0394 H         1 <0>         0.0000
     44 H22         5.0986   -2.3982    3.6018 H         1 <0>         0.0000
     45 H23         5.1177   -4.1388    3.2917 H         1 <0>         0.0000
     46 H24         6.7931   -2.1847    1.6686 H         1 <0>         0.0000
     47 H25         2.5279   -1.8729   -0.0129 H         1 <0>         0.0000
     48 H26         5.9671   -3.6628   -1.0661 H         1 <0>         0.0000
     49 H27         0.4960   -1.2867    0.5777 H         1 <0>         0.0000
     50 H28         3.8157   -4.1378    1.3829 H         1 <0>         0.0000
@<TRIPOS>BOND
     1    1   18 am
     2    1   20 2
     3    2   12 1
     4    2   17 am
     5    2   21 2
     6    3   13 1
     7    3   16 am
     8    3   22 2
     9    4   14 1
    10    5   14 1
    11    6   15 1
    12    7   15 1
    13    8   15 1
    14    9   16 1
    15   10   12 1
    16   10   14 1
    17   11   12 1
    18   11   18 1
    19   13   15 1
    20   13   17 1
    21   18   19 1
    22    1   23 1
    23    4   24 1
    24    4   25 1
    25    4   26 1
    26    5   27 1
    27    5   28 1
    28    5   29 1
    29    6   30 1
    30    6   31 1
    31    6   32 1
    32    7   33 1
    33    7   34 1
    34    7   35 1
    35    8   36 1
    36    8   37 1
    37    8   38 1
    38    9   39 1
    39    9   40 1
    40    9   41 1
    41   10   42 1
    42   10   43 1
    43   11   44 1
    44   11   45 1
    45   12   46 1
    46   13   47 1
    47   14   48 1
    48   16   49 1
    49   17   50 1
@<TRIPOS>MOLECULE
LIGAND
   50    49     0     0     0
SMALL
NO_CHARGES

@<TRIPOS>ATOM
      1 C1          5.8219   -5.5815   -0.7684 C.2       1 <0>         0.0000
      2 C2          4.7609   -2.3304    1.0158 C.2       1 <0>         0.0000
      3 C3          1.3743   -3.6105    1.2141 C.2       1 <0>         0.0000
      4 C4          5.5916   -1.8934    4.5978 C.3       1 <0>         0.0000
      5 C5          7.0929    0.0222    4.0244 C.3       1 <0>         0.0000
      6 C6          3.5112   -2.5312   -1.8976 C.3       1 <0>         0.0000
      7 C7          2.5798   -4.7765   -1.3563 C.3       1 <0>         0.0000
      8 C8          1.0336   -2.8618   -1.8044 C.3       1 <0>         0.0000
      9 C9         -0.8899   -3.3247    2.1744 C.3       1 <0>         0.0000
     10 C10         6.8665   -1.8668    2.3816 C.3       1 <0>         0.0000
     11 C11         6.8055   -3.7427    0.6616 C.3       1 <0>         0.0000
     12 C12         5.9953   -2.9363    1.6910 C.3       1 <0>         0.0000
     13 C13         2.4245   -2.8999    0.3599 C.3       1 <0>         0.0000
     14 C14         6.1374   -1.0321    3.4575 C.3       1 <0>         0.0000
     15 C15         2.3718   -3.2623   -1.1540 C.3       1 <0>         0.0000
     16 N1          0.2223   -2.8565    1.3827 N.am      1 <0>         0.0000
     17 N2          3.6959   -3.2182    0.9688 N.am      1 <0>         0.0000
     18 N3          6.2725   -5.0565    0.4193 N.am      1 <0>         0.0000
     19 O1          6.2180   -5.8698    1.5343 O.3       1 <0>         0.0000
     20 O2          5.7956   -5.0070   -1.8527 O.2       1 <0>         0.0000
     21 O3          4.7482   -1.1914    0.5542 O.2       1 <0>         0.0000
     22 O4          1.5569   -4.7218    1.7089 O.2       1 <0>         0.0000
     23 H1          5.4607   -6.6215   -0.6818 H         1 <0>         0.0000
     24 H2          6.4006   -2.4456    5.0885 H         1 <0>         0.0000
     25 H3          4.8609   -2.6219    4.2310 H         1 <0>         0.0000
     26 H4          5.1097   -1.2817    5.3659 H         1 <0>         0.0000
     27 H5          7.9623   -0.4436    4.5008 H         1 <0>         0.0000
     28 H6          7.4545    0.6861    3.2321 H         1 <0>         0.0000
     29 H7          6.5886    0.6429    4.7727 H         1 <0>         0.0000
     30 H8          3.4182   -1.4447   -1.7906 H         1 <0>         0.0000
     31 H9          3.5120   -2.7653   -2.9677 H         1 <0>         0.0000
     32 H10         4.4918   -2.8203   -1.5020 H         1 <0>         0.0000
     33 H11         1.7979   -5.3538   -0.8491 H         1 <0>         0.0000
     34 H12         3.5395   -5.1121   -0.9494 H         1 <0>         0.0000
     35 H13         2.5489   -5.0416   -2.4191 H         1 <0>         0.0000
     36 H14         0.1926   -3.3589   -1.3070 H         1 <0>         0.0000
     37 H15         0.9978   -3.1431   -2.8622 H         1 <0>         0.0000
     38 H16         0.8573   -1.7835   -1.7352 H         1 <0>         0.0000
     39 H17        -1.5882   -3.8849    1.5471 H         1 <0>         0.0000
     40 H18        -1.4189   -2.4783    2.6208 H         1 <0>         0.0000
     41 H19        -0.5348   -3.9781    2.9759 H         1 <0>         0.0000
     42 H20         7.7322   -2.3581    2.8457 H         1 <0>         0.0000
     43 H21         7.2705   -1.1813    1.6250 H         1 <0>         0.0000
     44 H22         6.8299   -3.2204   -0.3007 H         1 <0>         0.0000
     45 H23         7.8405   -3.8774    0.9927 H         1 <0>         0.0000
     46 H24         5.6479   -3.6501    2.4472 H         1 <0>         0.0000
     47 H25         2.3043   -1.8161    0.4837 H         1 <0>         0.0000
     48 H26         5.2955   -0.5008    2.9986 H         1 <0>         0.0000
     49 H27         0.1595   -1.9470    0.9352 H         1 <0>         0.0000
     50 H28         3.8157   -4.1378    1.3829 H         1 <0>         0.0000
@<TRIPOS>BOND
     1    1   18 am
     2    1   20 2
     3    2   12 1
     4    2   17 am
     5    2   21 2
     6    3   13 1
     7    3   16 am
     8    3   22 2
     9    4   14 1
    10    5   14 1
    11    6   15 1
    12    7   15 1
    13    8   15 1
    14    9   16 1
    15   10   12 1
    16   10   14 1
    17   11   12 1
    18   11   18 1
    19   13   15 1
    20   13   17 1
    21   18   19 1
    22    1   23 1
    23    4   24 1
    24    4   25 1
    25    4   26 1
    26    5   27 1
    27    5   28 1
    28    5   29 1
    29    6   30 1
    30    6   31 1
    31    6   32 1
    32    7   33 1
    33    7   34 1
    34    7   35 1
    35    8   36 1
    36    8   37 1
    37    8   38 1
    38    9   39 1
    39    9   40 1
    40    9   41 1
    41   10   42 1
    42   10   43 1
    43   11   44 1
    44   11   45 1
    45   12   46 1
    46   13   47 1
    47   14   48 1
    48   16   49 1
    49   17   50 1
@<TRIPOS>MOLECULE
LIGAND
   50    49     0     0     0
SMALL
NO_CHARGES

@<TRIPOS>ATOM
      1 C1          8.4401   -2.2571   -0.5690 C.2       1 <0>         0.0000
      2 C2          4.7609   -2.3304    1.0158 C.2       1 <0>         0.0000
      3 C3          1.9548   -1.6162    1.0446 C.2       1 <0>         0.0000
      4 C4          6.2068   -2.5045    4.7682 C.3       1 <0>         0.0000
      5 C5          7.2536   -0.2835    4.2952 C.3       1 <0>         0.0000
      6 C6          2.0155   -5.3270   -0.2360 C.3       1 <0>         0.0000
      7 C7          1.1035   -4.4371    1.9036 C.3       1 <0>         0.0000
      8 C8          0.0778   -3.7458   -0.2707 C.3       1 <0>         0.0000
      9 C9          0.8348    0.5461    0.5966 C.3       1 <0>         0.0000
     10 C10         6.8665   -1.8668    2.3816 C.3       1 <0>         0.0000
     11 C11         6.8055   -3.7427    0.6616 C.3       1 <0>         0.0000
     12 C12         5.9953   -2.9363    1.6910 C.3       1 <0>         0.0000
     13 C13         2.4245   -2.8999    0.3599 C.3       1 <0>         0.0000
     14 C14         6.3308   -1.3748    3.7443 C.3       1 <0>         0.0000
     15 C15         1.4067   -4.0765    0.4357 C.3       1 <0>         0.0000
     16 N1          1.3343   -0.7384    0.1680 N.am      1 <0>         0.0000
     17 N2          3.6959   -3.2182    0.9688 N.am      1 <0>         0.0000
     18 N3          7.2606   -2.9528   -0.4510 N.am      1 <0>         0.0000
     19 O1          6.3854   -2.9043   -1.5183 O.3       1 <0>         0.0000
     20 O2          9.3298   -2.1878    0.2738 O.2       1 <0>         0.0000
     21 O3          4.7482   -1.1914    0.5542 O.2       1 <0>         0.0000
     22 O4          2.1356   -1.3931    2.2407 O.2       1 <0>         0.0000
     23 H1          8.5459   -1.7288   -1.5330 H         1 <0>         0.0000
     24 H2          7.1779   -2.9820    4.9387 H         1 <0>         0.0000
     25 H3          5.5078   -3.2753    4.4268 H         1 <0>         0.0000
     26 H4          5.8592   -2.1311    5.7358 H         1 <0>         0.0000
     27 H5          8.2679   -0.6642    4.4570 H         1 <0>         0.0000
     28 H6          7.3145    0.5617    3.6015 H         1 <0>         0.0000
     29 H7          6.8785    0.0981    5.2508 H         1 <0>         0.0000
     30 H8          2.2541   -5.1329   -1.2877 H         1 <0>         0.0000
     31 H9          1.3305   -6.1810   -0.1982 H         1 <0>         0.0000
     32 H10         2.9425   -5.6329    0.2628 H         1 <0>         0.0000
     33 H11         0.6668   -3.5850    2.4375 H         1 <0>         0.0000
     34 H12         2.0104   -4.7234    2.4466 H         1 <0>         0.0000
     35 H13         0.3913   -5.2673    1.9681 H         1 <0>         0.0000
     36 H14        -0.3923   -2.8611    0.1746 H         1 <0>         0.0000
     37 H15        -0.6390   -4.5698   -0.1902 H         1 <0>         0.0000
     38 H16         0.2276   -3.5306   -1.3336 H         1 <0>         0.0000
     39 H17        -0.2038    0.4548    0.9249 H         1 <0>         0.0000
     40 H18         0.8817    1.2638   -0.2270 H         1 <0>         0.0000
     41 H19         1.4345    0.9267    1.4277 H         1 <0>         0.0000
     42 H20         7.8774   -2.2707    2.5271 H         1 <0>         0.0000
     43 H21         6.9742   -0.9994    1.7170 H         1 <0>         0.0000
     44 H22         7.6920   -4.1821    1.1312 H         1 <0>         0.0000
     45 H23         6.2097   -4.5617    0.2452 H         1 <0>         0.0000
     46 H24         5.6479   -3.6501    2.4472 H         1 <0>         0.0000
     47 H25         2.6512   -2.6760   -0.6903 H         1 <0>         0.0000
     48 H26         5.3389   -0.9289    3.6068 H         1 <0>         0.0000
     49 H27         1.2283   -1.0078   -0.8054 H         1 <0>         0.0000
     50 H28         3.8157   -4.1378    1.3829 H         1 <0>         0.0000
@<TRIPOS>BOND
     1    1   18 am
     2    1   20 2
     3    2   12 1
     4    2   17 am
     5    2   21 2
     6    3   13 1
     7    3   16 am
     8    3   22 2
     9    4   14 1
    10    5   14 1
    11    6   15 1
    12    7   15 1
    13    8   15 1
    14    9   16 1
    15   10   12 1
    16   10   14 1
    17   11   12 1
    18   11   18 1
    19   13   15 1
    20   13   17 1
    21   18   19 1
    22    1   23 1
    23    4   24 1
    24    4   25 1
    25    4   26 1
    26    5   27 1
    27    5   28 1
    28    5   29 1
    29    6   30 1
    30    6   31 1
    31    6   32 1
    32    7   33 1
    33    7   34 1
    34    7   35 1
    35    8   36 1
    36    8   37 1
    37    8   38 1
    38    9   39 1
    39    9   40 1
    40    9   41 1
    41   10   42 1
    42   10   43 1
    43   11   44 1
    44   11   45 1
    45   12   46 1
    46   13   47 1
    47   14   48 1
    48   16   49 1
    49   17   50 1
@<TRIPOS>MOLECULE
LIGAND
   50    49     0     0     0
SMALL
NO_CHARGES

@<TRIPOS>ATOM
      1 C1          9.4872   -3.7737    1.2654 C.2       1 <0>         0.0000
      2 C2          4.7609   -2.3304    1.0158 C.2       1 <0>         0.0000
      3 C3          1.3743   -3.6105    1.2141 C.2       1 <0>         0.0000
      4 C4          4.8998   -3.3220    4.5808 C.3       1 <0>         0.0000
      5 C5          5.9126   -1.1117    5.1647 C.3       1 <0>         0.0000
      6 C6          3.5112   -2.5312   -1.8976 C.3       1 <0>         0.0000
      7 C7          2.5798   -4.7765   -1.3563 C.3       1 <0>         0.0000
      8 C8          1.0336   -2.8618   -1.8044 C.3       1 <0>         0.0000
      9 C9         -0.8899   -3.3247    2.1744 C.3       1 <0>         0.0000
     10 C10         6.4405   -2.1272    2.9267 C.3       1 <0>         0.0000
     11 C11         7.1342   -3.0688    0.6654 C.3       1 <0>         0.0000
     12 C12         5.9953   -2.9363    1.6910 C.3       1 <0>         0.0000
     13 C13         2.4245   -2.8999    0.3599 C.3       1 <0>         0.0000
     14 C14         5.3645   -1.9750    4.0244 C.3       1 <0>         0.0000
     15 C15         2.3718   -3.2623   -1.1540 C.3       1 <0>         0.0000
     16 N1          0.2223   -2.8565    1.3827 N.am      1 <0>         0.0000
     17 N2          3.6959   -3.2182    0.9688 N.am      1 <0>         0.0000
     18 N3          8.1489   -4.0093    1.0586 N.am      1 <0>         0.0000
     19 O1          7.6955   -5.3007    1.2443 O.3       1 <0>         0.0000
     20 O2         10.3271   -4.6032    1.6016 O.2       1 <0>         0.0000
     21 O3          4.7482   -1.1914    0.5542 O.2       1 <0>         0.0000
     22 O4          1.5569   -4.7218    1.7089 O.2       1 <0>         0.0000
     23 H1          9.7805   -2.7220    1.0994 H         1 <0>         0.0000
     24 H2          5.7423   -3.8772    5.0075 H         1 <0>         0.0000
     25 H3          4.4501   -3.9417    3.7978 H         1 <0>         0.0000
     26 H4          4.1642   -3.1925    5.3800 H         1 <0>         0.0000
     27 H5          6.7922   -1.5734    5.6261 H         1 <0>         0.0000
     28 H6          6.2016   -0.1209    4.7985 H         1 <0>         0.0000
     29 H7          5.1564   -0.9697    5.9440 H         1 <0>         0.0000
     30 H8          3.4182   -1.4447   -1.7906 H         1 <0>         0.0000
     31 H9          3.5120   -2.7653   -2.9677 H         1 <0>         0.0000
     32 H10         4.4918   -2.8203   -1.5020 H         1 <0>         0.0000
     33 H11         1.7979   -5.3538   -0.8491 H         1 <0>         0.0000
     34 H12         3.5395   -5.1121   -0.9494 H         1 <0>         0.0000
     35 H13         2.5489   -5.0416   -2.4191 H         1 <0>         0.0000
     36 H14         0.1926   -3.3589   -1.3070 H         1 <0>         0.0000
     37 H15         0.9978   -3.1431   -2.8622 H         1 <0>         0.0000
     38 H16         0.8573   -1.7835   -1.7352 H         1 <0>         0.0000
     39 H17        -1.5882   -3.8849    1.5471 H         1 <0>         0.0000
     40 H18        -1.4189   -2.4783    2.6208 H         1 <0>         0.0000
     41 H19        -0.5348   -3.9781    2.9759 H         1 <0>         0.0000
     42 H20         7.3251   -2.6069    3.3666 H         1 <0>         0.0000
     43 H21         6.7588   -1.1249    2.6110 H         1 <0>         0.0000
     44 H22         6.7419   -3.4007   -0.3017 H         1 <0>         0.0000
     45 H23         7.6368   -2.1087    0.5083 H         1 <0>         0.0000
     46 H24         5.7385   -3.9535    2.0094 H         1 <0>         0.0000
     47 H25         2.3043   -1.8161    0.4837 H         1 <0>         0.0000
     48 H26         4.4913   -1.4577    3.6101 H         1 <0>         0.0000
     49 H27         0.1595   -1.9470    0.9352 H         1 <0>         0.0000
     50 H28         3.8157   -4.1378    1.3829 H         1 <0>         0.0000
@<TRIPOS>BOND
     1    1   18 am
     2    1   20 2
     3    2   12 1
     4    2   17 am
     5    2   21 2
     6    3   13 1
     7    3   16 am
     8    3   22 2
     9    4   14 1
    10    5   14 1
    11    6   15 1
    12    7   15 1
    13    8   15 1
    14    9   16 1
    15   10   12 1
    16   10   14 1
    17   11   12 1
    18   11   18 1
    19   13   15 1
    20   13   17 1
    21   18   19 1
    22    1   23 1
    23    4   24 1
    24    4   25 1
    25    4   26 1
    26    5   27 1
    27    5   28 1
    28    5   29 1
    29    6   30 1
    30    6   31 1
    31    6   32 1
    32    7   33 1
    33    7   34 1
    34    7   35 1
    35    8   36 1
    36    8   37 1
    37    8   38 1
    38    9   39 1
    39    9   40 1
    40    9   41 1
    41   10   42 1
    42   10   43 1
    43   11   44 1
    44   11   45 1
    45   12   46 1
    46   13   47 1
    47   14   48 1
    48   16   49 1
    49   17   50 1
@<TRIPOS>MOLECULE
LIGAND
   50    49     0     0     0
SMALL
NO_CHARGES

@<TRIPOS>ATOM
      1 C1          9.0094   -4.5043    1.6394 C.2       1 <0>         0.0000
      2 C2          4.7609   -2.3304    1.0158 C.2       1 <0>         0.0000
      3 C3          1.3743   -3.6105    1.2141 C.2       1 <0>         0.0000
      4 C4          5.5916   -1.8934    4.5978 C.3       1 <0>         0.0000
      5 C5          7.0929    0.0222    4.0244 C.3       1 <0>         0.0000
      6 C6          3.5112   -2.5312   -1.8976 C.3       1 <0>         0.0000
      7 C7          2.5798   -4.7765   -1.3563 C.3       1 <0>         0.0000
      8 C8          1.0336   -2.8618   -1.8044 C.3       1 <0>         0.0000
      9 C9          0.6347   -3.9155    3.5573 C.3       1 <0>         0.0000
     10 C10         6.8665   -1.8668    2.3816 C.3       1 <0>         0.0000
     11 C11         6.8055   -3.7427    0.6616 C.3       1 <0>         0.0000
     12 C12         5.9953   -2.9363    1.6910 C.3       1 <0>         0.0000
     13 C13         2.4245   -2.8999    0.3599 C.3       1 <0>         0.0000
     14 C14         6.1374   -1.0321    3.4575 C.3       1 <0>         0.0000
     15 C15         2.3718   -3.2623   -1.1540 C.3       1 <0>         0.0000
     16 N1          1.5064   -3.3313    2.5663 N.am      1 <0>         0.0000
     17 N2          3.6959   -3.2182    0.9688 N.am      1 <0>         0.0000
     18 N3          7.7018   -4.6947    1.2608 N.am      1 <0>         0.0000
     19 O1          7.1560   -5.9460    1.4704 O.3       1 <0>         0.0000
     20 O2          9.6534   -3.4652    1.5292 O.2       1 <0>         0.0000
     21 O3          4.7482   -1.1914    0.5542 O.2       1 <0>         0.0000
     22 O4          0.5249   -4.3627    0.7389 O.2       1 <0>         0.0000
     23 H1          9.4767   -5.4035    2.0784 H         1 <0>         0.0000
     24 H2          6.4006   -2.4456    5.0885 H         1 <0>         0.0000
     25 H3          4.8609   -2.6219    4.2310 H         1 <0>         0.0000
     26 H4          5.1097   -1.2817    5.3659 H         1 <0>         0.0000
     27 H5          7.9623   -0.4436    4.5008 H         1 <0>         0.0000
     28 H6          7.4545    0.6861    3.2321 H         1 <0>         0.0000
     29 H7          6.5886    0.6429    4.7727 H         1 <0>         0.0000
     30 H8          3.4182   -1.4447   -1.7906 H         1 <0>         0.0000
     31 H9          3.5120   -2.7653   -2.9677 H         1 <0>         0.0000
     32 H10         4.4918   -2.8203   -1.5020 H         1 <0>         0.0000
     33 H11         1.7979   -5.3538   -0.8491 H         1 <0>         0.0000
     34 H12         3.5395   -5.1121   -0.9494 H         1 <0>         0.0000
     35 H13         2.5489   -5.0416   -2.4191 H         1 <0>         0.0000
     36 H14         0.1926   -3.3589   -1.3070 H         1 <0>         0.0000
     37 H15         0.9978   -3.1431   -2.8622 H         1 <0>         0.0000
     38 H16         0.8573   -1.7835   -1.7352 H         1 <0>         0.0000
     39 H17        -0.2373   -3.2755    3.7147 H         1 <0>         0.0000
     40 H18         1.1644   -4.0284    4.5071 H         1 <0>         0.0000
     41 H19         0.2935   -4.9003    3.2271 H         1 <0>         0.0000
     42 H20         7.7322   -2.3581    2.8457 H         1 <0>         0.0000
     43 H21         7.2705   -1.1813    1.6250 H         1 <0>         0.0000
     44 H22         6.1354   -4.3010   -0.0008 H         1 <0>         0.0000
     45 H23         7.4165   -3.0830    0.0367 H         1 <0>         0.0000
     46 H24         5.6479   -3.6501    2.4472 H         1 <0>         0.0000
     47 H25         2.3043   -1.8161    0.4837 H         1 <0>         0.0000
     48 H26         5.2955   -0.5008    2.9986 H         1 <0>         0.0000
     49 H27         2.2391   -2.6962    2.8684 H         1 <0>         0.0000
     50 H28         3.8157   -4.1378    1.3829 H         1 <0>         0.0000
@<TRIPOS>BOND
     1    1   18 am
     2    1   20 2
     3    2   12 1
     4    2   17 am
     5    2   21 2
     6    3   13 1
     7    3   16 am
     8    3   22 2
     9    4   14 1
    10    5   14 1
    11    6   15 1
    12    7   15 1
    13    8   15 1
    14    9   16 1
    15   10   12 1
    16   10   14 1
    17   11   12 1
    18   11   18 1
    19   13   15 1
    20   13   17 1
    21   18   19 1
    22    1   23 1
    23    4   24 1
    24    4   25 1
    25    4   26 1
    26    5   27 1
    27    5   28 1
    28    5   29 1
    29    6   30 1
    30    6   31 1
    31    6   32 1
    32    7   33 1
    33    7   34 1
    34    7   35 1
    35    8   36 1
    36    8   37 1
    37    8   38 1
    38    9   39 1
    39    9   40 1
    40    9   41 1
    41   10   42 1
    42   10   43 1
    43   11   44 1
    44   11   45 1
    45   12   46 1
    46   13   47 1
    47   14   48 1
    48   16   49 1
    49   17   50 1
@<TRIPOS>MOLECULE
LIGAND
   50    49     0     0     0
SMALL
NO_CHARGES

@<TRIPOS>ATOM
      1 C1          9.2970   -4.1372    0.8354 C.2       1 <0>         0.0000
      2 C2          4.7609   -2.3304    1.0158 C.2       1 <0>         0.0000
      3 C3          1.3743   -3.6105    1.2141 C.2       1 <0>         0.0000
      4 C4          5.5916   -1.8934    4.5978 C.3       1 <0>         0.0000
      5 C5          7.0929    0.0222    4.0244 C.3       1 <0>         0.0000
      6 C6          2.9144   -2.0789   -1.9851 C.3       1 <0>         0.0000
      7 C7          3.2618   -4.4861   -1.4495 C.3       1 <0>         0.0000
      8 C8          0.9399   -3.5730   -1.6309 C.3       1 <0>         0.0000
      9 C9         -0.4638   -3.1822    2.8167 C.3       1 <0>         0.0000
     10 C10         6.8665   -1.8668    2.3816 C.3       1 <0>         0.0000
     11 C11         6.8055   -3.7427    0.6616 C.3       1 <0>         0.0000
     12 C12         5.9953   -2.9363    1.6910 C.3       1 <0>         0.0000
     13 C13         2.4245   -2.8999    0.3599 C.3       1 <0>         0.0000
     14 C14         6.1374   -1.0321    3.4575 C.3       1 <0>         0.0000
     15 C15         2.3718   -3.2623   -1.1540 C.3       1 <0>         0.0000
     16 N1          0.5772   -2.7269    1.9268 N.am      1 <0>         0.0000
     17 N2          3.6959   -3.2182    0.9688 N.am      1 <0>         0.0000
     18 N3          7.9912   -4.3422    1.2125 N.am      1 <0>         0.0000
     19 O1          7.7606   -5.2290    2.2460 O.3       1 <0>         0.0000
     20 O2          9.6863   -3.3900   -0.0572 O.2       1 <0>         0.0000
     21 O3          4.7482   -1.1914    0.5542 O.2       1 <0>         0.0000
     22 O4          1.2756   -4.8354    1.2685 O.2       1 <0>         0.0000
     23 H1         10.0234   -4.7251    1.4239 H         1 <0>         0.0000
     24 H2          6.4006   -2.4456    5.0885 H         1 <0>         0.0000
     25 H3          4.8609   -2.6219    4.2310 H         1 <0>         0.0000
     26 H4          5.1097   -1.2817    5.3659 H         1 <0>         0.0000
     27 H5          7.9623   -0.4436    4.5008 H         1 <0>         0.0000
     28 H6          7.4545    0.6861    3.2321 H         1 <0>         0.0000
     29 H7          6.5886    0.6429    4.7727 H         1 <0>         0.0000
     30 H8          2.3199   -1.1739   -1.8172 H         1 <0>         0.0000
     31 H9          2.8994   -2.2973   -3.0585 H         1 <0>         0.0000
     32 H10         3.9518   -1.8484   -1.7158 H         1 <0>         0.0000
     33 H11         2.9258   -5.3642   -0.8858 H         1 <0>         0.0000
     34 H12         4.3049   -4.3063   -1.1689 H         1 <0>         0.0000
     35 H13         3.2353   -4.7468   -2.5135 H         1 <0>         0.0000
     36 H14         0.5126   -4.4101   -1.0664 H         1 <0>         0.0000
     37 H15         0.9176   -3.8503   -2.6901 H         1 <0>         0.0000
     38 H16         0.2727   -2.7163   -1.4916 H         1 <0>         0.0000
     39 H17        -1.4067   -3.2811    2.2725 H         1 <0>         0.0000
     40 H18        -0.6020   -2.4684    3.6333 H         1 <0>         0.0000
     41 H19        -0.1993   -4.1542    3.2419 H         1 <0>         0.0000
     42 H20         7.7322   -2.3581    2.8457 H         1 <0>         0.0000
     43 H21         7.2705   -1.1813    1.6250 H         1 <0>         0.0000
     44 H22         6.1970   -4.5521    0.2444 H         1 <0>         0.0000
     45 H23         7.1292   -3.1080   -0.1699 H         1 <0>         0.0000
     46 H24         5.6479   -3.6501    2.4472 H         1 <0>         0.0000
     47 H25         2.3043   -1.8161    0.4837 H         1 <0>         0.0000
     48 H26         5.2955   -0.5008    2.9986 H         1 <0>         0.0000
     49 H27         0.7309   -1.7288    1.8190 H         1 <0>         0.0000
     50 H28         3.8157   -4.1378    1.3829 H         1 <0>         0.0000
@<TRIPOS>BOND
     1    1   18 am
     2    1   20 2
     3    2   12 1
     4    2   17 am
     5    2   21 2
     6    3   13 1
     7    3   16 am
     8    3   22 2
     9    4   14 1
    10    5   14 1
    11    6   15 1
    12    7   15 1
    13    8   15 1
    14    9   16 1
    15   10   12 1
    16   10   14 1
    17   11   12 1
    18   11   18 1
    19   13   15 1
    20   13   17 1
    21   18   19 1
    22    1   23 1
    23    4   24 1
    24    4   25 1
    25    4   26 1
    26    5   27 1
    27    5   28 1
    28    5   29 1
    29    6   30 1
    30    6   31 1
    31    6   32 1
    32    7   33 1
    33    7   34 1
    34    7   35 1
    35    8   36 1
    36    8   37 1
    37    8   38 1
    38    9   39 1
    39    9   40 1
    40    9   41 1
    41   10   42 1
    42   10   43 1
    43   11   44 1
    44   11   45 1
    45   12   46 1
    46   13   47 1
    47   14   48 1
    48   16   49 1
    49   17   50 1
@<TRIPOS>MOLECULE
LIGAND
   50    49     0     0     0
SMALL
NO_CHARGES

@<TRIPOS>ATOM
      1 C1          6.4496   -5.2442   -0.4265 C.2       1 <0>         0.0000
      2 C2          4.7609   -2.3304    1.0158 C.2       1 <0>         0.0000
      3 C3          1.6238   -2.1763    1.4428 C.2       1 <0>         0.0000
      4 C4          5.6212   -3.8274    4.6518 C.3       1 <0>         0.0000
      5 C5          6.1055   -1.4698    5.3297 C.3       1 <0>         0.0000
      6 C6          2.6382   -4.8237   -1.2732 C.3       1 <0>         0.0000
      7 C7          1.4139   -5.1834    0.8654 C.3       1 <0>         0.0000
      8 C8          0.3871   -3.7862   -0.9377 C.3       1 <0>         0.0000
      9 C9          1.1427   -2.2044    3.8715 C.3       1 <0>         0.0000
     10 C10         6.4405   -2.1272    2.9267 C.3       1 <0>         0.0000
     11 C11         7.1342   -3.0688    0.6654 C.3       1 <0>         0.0000
     12 C12         5.9953   -2.9363    1.6910 C.3       1 <0>         0.0000
     13 C13         2.4245   -2.8999    0.3599 C.3       1 <0>         0.0000
     14 C14         5.5959   -2.3669    4.1976 C.3       1 <0>         0.0000
     15 C15         1.7114   -4.1488   -0.2382 C.3       1 <0>         0.0000
     16 N1          1.8198   -2.7177    2.7048 N.am      1 <0>         0.0000
     17 N2          3.6959   -3.2182    0.9688 N.am      1 <0>         0.0000
     18 N3          6.8025   -3.9159   -0.4486 N.am      1 <0>         0.0000
     19 O1          6.8526   -3.2928   -1.6802 O.3       1 <0>         0.0000
     20 O2          6.3544   -5.9537    0.5706 O.2       1 <0>         0.0000
     21 O3          4.7482   -1.1914    0.5542 O.2       1 <0>         0.0000
     22 O4          0.8744   -1.2316    1.1999 O.2       1 <0>         0.0000
     23 H1          6.2432   -5.6623   -1.4276 H         1 <0>         0.0000
     24 H2          6.6467   -4.1510    4.8609 H         1 <0>         0.0000
     25 H3          5.2091   -4.4897    3.8832 H         1 <0>         0.0000
     26 H4          5.0464   -3.9704    5.5714 H         1 <0>         0.0000
     27 H5          7.1480   -1.6962    5.5783 H         1 <0>         0.0000
     28 H6          6.0453   -0.4136    5.0465 H         1 <0>         0.0000
     29 H7          5.5042   -1.6053    6.2348 H         1 <0>         0.0000
     30 H8          2.8872   -4.1345   -2.0879 H         1 <0>         0.0000
     31 H9          2.1738   -5.7124   -1.7140 H         1 <0>         0.0000
     32 H10         3.5794   -5.1449   -0.8119 H         1 <0>         0.0000
     33 H11         0.7565   -4.7621    1.6349 H         1 <0>         0.0000
     34 H12         2.3282   -5.5113    1.3711 H         1 <0>         0.0000
     35 H13         0.9158   -6.0685    0.4541 H         1 <0>         0.0000
     36 H14        -0.3050   -3.3025   -0.2384 H         1 <0>         0.0000
     37 H15        -0.1179   -4.6740   -1.3329 H         1 <0>         0.0000
     38 H16         0.5457   -3.0900   -1.7676 H         1 <0>         0.0000
     39 H17         1.7401   -1.4157    4.3360 H         1 <0>         0.0000
     40 H18         0.9874   -3.0042    4.6007 H         1 <0>         0.0000
     41 H19         0.1698   -1.7909    3.5925 H         1 <0>         0.0000
     42 H20         7.4883   -2.3678    3.1512 H         1 <0>         0.0000
     43 H21         6.4148   -1.0554    2.6895 H         1 <0>         0.0000
     44 H22         7.3992   -2.0872    0.2584 H         1 <0>         0.0000
     45 H23         8.0331   -3.4907    1.1269 H         1 <0>         0.0000
     46 H24         5.7385   -3.9535    2.0094 H         1 <0>         0.0000
     47 H25         2.6549   -2.1876   -0.4426 H         1 <0>         0.0000
     48 H26         4.5539   -2.0890    4.0008 H         1 <0>         0.0000
     49 H27         2.4595   -3.4993    2.8111 H         1 <0>         0.0000
     50 H28         3.8157   -4.1378    1.3829 H         1 <0>         0.0000
@<TRIPOS>BOND
     1    1   18 am
     2    1   20 2
     3    2   12 1
     4    2   17 am
     5    2   21 2
     6    3   13 1
     7    3   16 am
     8    3   22 2
     9    4   14 1
    10    5   14 1
    11    6   15 1
    12    7   15 1
    13    8   15 1
    14    9   16 1
    15   10   12 1
    16   10   14 1
    17   11   12 1
    18   11   18 1
    19   13   15 1
    20   13   17 1
    21   18   19 1
    22    1   23 1
    23    4   24 1
    24    4   25 1
    25    4   26 1
    26    5   27 1
    27    5   28 1
    28    5   29 1
    29    6   30 1
    30    6   31 1
    31    6   32 1
    32    7   33 1
    33    7   34 1
    34    7   35 1
    35    8   36 1
    36    8   37 1
    37    8   38 1
    38    9   39 1
    39    9   40 1
    40    9   41 1
    41   10   42 1
    42   10   43 1
    43   11   44 1
    44   11   45 1
    45   12   46 1
    46   13   47 1
    47   14   48 1
    48   16   49 1
    49   17   50 1
@<TRIPOS>MOLECULE
LIGAND
   50    49     0     0     0
SMALL
NO_CHARGES

@<TRIPOS>ATOM
      1 C1          6.3614   -4.3242   -1.3889 C.2       1 <0>         0.0000
      2 C2          4.7609   -2.3304    1.0158 C.2       1 <0>         0.0000
      3 C3          1.6238   -2.1763    1.4428 C.2       1 <0>         0.0000
      4 C4          4.8998   -3.3220    4.5808 C.3       1 <0>         0.0000
      5 C5          5.9126   -1.1117    5.1647 C.3       1 <0>         0.0000
      6 C6          2.6382   -4.8237   -1.2732 C.3       1 <0>         0.0000
      7 C7          1.4139   -5.1834    0.8654 C.3       1 <0>         0.0000
      8 C8          0.3871   -3.7862   -0.9377 C.3       1 <0>         0.0000
      9 C9          1.3383    0.0348    2.5199 C.3       1 <0>         0.0000
     10 C10         6.4405   -2.1272    2.9267 C.3       1 <0>         0.0000
     11 C11         7.1342   -3.0688    0.6654 C.3       1 <0>         0.0000
     12 C12         5.9953   -2.9363    1.6910 C.3       1 <0>         0.0000
     13 C13         2.4245   -2.8999    0.3599 C.3       1 <0>         0.0000
     14 C14         5.3645   -1.9750    4.0244 C.3       1 <0>         0.0000
     15 C15         1.7114   -4.1488   -0.2382 C.3       1 <0>         0.0000
     16 N1          1.9549   -0.8333    1.5455 N.am      1 <0>         0.0000
     17 N2          3.6959   -3.2182    0.9688 N.am      1 <0>         0.0000
     18 N3          7.0083   -4.2255   -0.1801 N.am      1 <0>         0.0000
     19 O1          7.6218   -5.3633    0.3064 O.3       1 <0>         0.0000
     20 O2          5.7657   -3.4217   -1.9695 O.2       1 <0>         0.0000
     21 O3          4.7482   -1.1914    0.5542 O.2       1 <0>         0.0000
     22 O4          0.7950   -2.7447    2.1522 O.2       1 <0>         0.0000
     23 H1          6.4141   -5.3327   -1.8360 H         1 <0>         0.0000
     24 H2          5.7423   -3.8772    5.0075 H         1 <0>         0.0000
     25 H3          4.4501   -3.9417    3.7978 H         1 <0>         0.0000
     26 H4          4.1642   -3.1925    5.3800 H         1 <0>         0.0000
     27 H5          6.7922   -1.5734    5.6261 H         1 <0>         0.0000
     28 H6          6.2016   -0.1209    4.7985 H         1 <0>         0.0000
     29 H7          5.1564   -0.9697    5.9440 H         1 <0>         0.0000
     30 H8          2.8872   -4.1345   -2.0879 H         1 <0>         0.0000
     31 H9          2.1738   -5.7124   -1.7140 H         1 <0>         0.0000
     32 H10         3.5794   -5.1449   -0.8119 H         1 <0>         0.0000
     33 H11         0.7565   -4.7621    1.6349 H         1 <0>         0.0000
     34 H12         2.3282   -5.5113    1.3711 H         1 <0>         0.0000
     35 H13         0.9158   -6.0685    0.4541 H         1 <0>         0.0000
     36 H14        -0.3050   -3.3025   -0.2384 H         1 <0>         0.0000
     37 H15        -0.1179   -4.6740   -1.3329 H         1 <0>         0.0000
     38 H16         0.5457   -3.0900   -1.7676 H         1 <0>         0.0000
     39 H17         0.4402    0.4941    2.0989 H         1 <0>         0.0000
     40 H18         2.0331    0.8259    2.8147 H         1 <0>         0.0000
     41 H19         1.0580   -0.5350    3.4100 H         1 <0>         0.0000
     42 H20         7.3251   -2.6069    3.3666 H         1 <0>         0.0000
     43 H21         6.7588   -1.1249    2.6110 H         1 <0>         0.0000
     44 H22         7.1645   -2.1910    0.0112 H         1 <0>         0.0000
     45 H23         8.1063   -3.1455    1.1636 H         1 <0>         0.0000
     46 H24         5.7385   -3.9535    2.0094 H         1 <0>         0.0000
     47 H25         2.6549   -2.1876   -0.4426 H         1 <0>         0.0000
     48 H26         4.4913   -1.4577    3.6101 H         1 <0>         0.0000
     49 H27         2.6527   -0.4488    0.9157 H         1 <0>         0.0000
     50 H28         3.8157   -4.1378    1.3829 H         1 <0>         0.0000
@<TRIPOS>BOND
     1    1   18 am
     2    1   20 2
     3    2   12 1
     4    2   17 am
     5    2   21 2
     6    3   13 1
     7    3   16 am
     8    3   22 2
     9    4   14 1
    10    5   14 1
    11    6   15 1
    12    7   15 1
    13    8   15 1
    14    9   16 1
    15   10   12 1
    16   10   14 1
    17   11   12 1
    18   11   18 1
    19   13   15 1
    20   13   17 1
    21   18   19 1
    22    1   23 1
    23    4   24 1
    24    4   25 1
    25    4   26 1
    26    5   27 1
    27    5   28 1
    28    5   29 1
    29    6   30 1
    30    6   31 1
    31    6   32 1
    32    7   33 1
    33    7   34 1
    34    7   35 1
    35    8   36 1
    36    8   37 1
    37    8   38 1
    38    9   39 1
    39    9   40 1
    40    9   41 1
    41   10   42 1
    42   10   43 1
    43   11   44 1
    44   11   45 1
    45   12   46 1
    46   13   47 1
    47   14   48 1
    48   16   49 1
    49   17   50 1
@<TRIPOS>MOLECULE
LIGAND
   50    49     0     0     0
SMALL
NO_CHARGES

@<TRIPOS>ATOM
      1 C1          7.4494   -6.0057    1.5877 C.2       1 <0>         0.0000
      2 C2          4.7609   -2.3304    1.0158 C.2       1 <0>         0.0000
      3 C3          1.4114   -2.9063    1.5049 C.2       1 <0>         0.0000
      4 C4          5.5916   -1.8934    4.5978 C.3       1 <0>         0.0000
      5 C5          7.0929    0.0222    4.0244 C.3       1 <0>         0.0000
      6 C6          3.1857   -3.8003   -1.8813 C.3       1 <0>         0.0000
      7 C7          1.9543   -5.3076   -0.3278 C.3       1 <0>         0.0000
      8 C8          0.7370   -3.4626   -1.4991 C.3       1 <0>         0.0000
      9 C9          1.0123   -1.9958    3.7725 C.3       1 <0>         0.0000
     10 C10         6.8665   -1.8668    2.3816 C.3       1 <0>         0.0000
     11 C11         6.8055   -3.7427    0.6616 C.3       1 <0>         0.0000
     12 C12         5.9953   -2.9363    1.6910 C.3       1 <0>         0.0000
     13 C13         2.4245   -2.8999    0.3599 C.3       1 <0>         0.0000
     14 C14         6.1374   -1.0321    3.4575 C.3       1 <0>         0.0000
     15 C15         2.0646   -3.8508   -0.8201 C.3       1 <0>         0.0000
     16 N1          1.8071   -2.1159    2.5738 N.am      1 <0>         0.0000
     17 N2          3.6959   -3.2182    0.9688 N.am      1 <0>         0.0000
     18 N3          7.7018   -4.6947    1.2608 N.am      1 <0>         0.0000
     19 O1          8.9648   -4.2050    1.5307 O.3       1 <0>         0.0000
     20 O2          6.3911   -6.6048    1.4210 O.2       1 <0>         0.0000
     21 O3          4.7482   -1.1914    0.5542 O.2       1 <0>         0.0000
     22 O4          0.3728   -3.5647    1.4736 O.2       1 <0>         0.0000
     23 H1          8.3147   -6.5219    2.0397 H         1 <0>         0.0000
     24 H2          6.4006   -2.4456    5.0885 H         1 <0>         0.0000
     25 H3          4.8609   -2.6219    4.2310 H         1 <0>         0.0000
     26 H4          5.1097   -1.2817    5.3659 H         1 <0>         0.0000
     27 H5          7.9623   -0.4436    4.5008 H         1 <0>         0.0000
     28 H6          7.4545    0.6861    3.2321 H         1 <0>         0.0000
     29 H7          6.5886    0.6429    4.7727 H         1 <0>         0.0000
     30 H8          3.3133   -2.7845   -2.2720 H         1 <0>         0.0000
     31 H9          2.9723   -4.4622   -2.7277 H         1 <0>         0.0000
     32 H10         4.1465   -4.1154   -1.4578 H         1 <0>         0.0000
     33 H11         1.1705   -5.4095    0.4319 H         1 <0>         0.0000
     34 H12         2.8879   -5.6535    0.1281 H         1 <0>         0.0000
     35 H13         1.7055   -5.9859   -1.1517 H         1 <0>         0.0000
     36 H14        -0.0909   -3.4848   -0.7807 H         1 <0>         0.0000
     37 H15         0.4812   -4.1517   -2.3109 H         1 <0>         0.0000
     38 H16         0.7762   -2.4505   -1.9146 H         1 <0>         0.0000
     39 H17         0.3100   -1.1637    3.6759 H         1 <0>         0.0000
     40 H18         1.6568   -1.8137    4.6368 H         1 <0>         0.0000
     41 H19         0.4467   -2.9155    3.9448 H         1 <0>         0.0000
     42 H20         7.7322   -2.3581    2.8457 H         1 <0>         0.0000
     43 H21         7.2705   -1.1813    1.6250 H         1 <0>         0.0000
     44 H22         6.1354   -4.3010   -0.0008 H         1 <0>         0.0000
     45 H23         7.4165   -3.0830    0.0367 H         1 <0>         0.0000
     46 H24         5.6479   -3.6501    2.4472 H         1 <0>         0.0000
     47 H25         2.5279   -1.8729   -0.0129 H         1 <0>         0.0000
     48 H26         5.2955   -0.5008    2.9986 H         1 <0>         0.0000
     49 H27         2.6832   -1.6060    2.5111 H         1 <0>         0.0000
     50 H28         3.8157   -4.1378    1.3829 H         1 <0>         0.0000
@<TRIPOS>BOND
     1    1   18 am
     2    1   20 2
     3    2   12 1
     4    2   17 am
     5    2   21 2
     6    3   13 1
     7    3   16 am
     8    3   22 2
     9    4   14 1
    10    5   14 1
    11    6   15 1
    12    7   15 1
    13    8   15 1
    14    9   16 1
    15   10   12 1
    16   10   14 1
    17   11   12 1
    18   11   18 1
    19   13   15 1
    20   13   17 1
    21   18   19 1
    22    1   23 1
    23    4   24 1
    24    4   25 1
    25    4   26 1
    26    5   27 1
    27    5   28 1
    28    5   29 1
    29    6   30 1
    30    6   31 1
    31    6   32 1
    32    7   33 1
    33    7   34 1
    34    7   35 1
    35    8   36 1
    36    8   37 1
    37    8   38 1
    38    9   39 1
    39    9   40 1
    40    9   41 1
    41   10   42 1
    42   10   43 1
    43   11   44 1
    44   11   45 1
    45   12   46 1
    46   13   47 1
    47   14   48 1
    48   16   49 1
    49   17   50 1
@<TRIPOS>MOLECULE
LIGAND
   50    49     0     0     0
SMALL
NO_CHARGES

@<TRIPOS>ATOM
      1 C1          8.5105   -4.8536    1.8116 C.2       1 <0>         0.0000
      2 C2          4.7609   -2.3304    1.0158 C.2       1 <0>         0.0000
      3 C3          1.3743   -3.6105    1.2141 C.2       1 <0>         0.0000
      4 C4          4.3730   -2.6566    4.3349 C.3       1 <0>         0.0000
      5 C5          5.8590   -0.7386    4.9398 C.3       1 <0>         0.0000
      6 C6          3.5112   -2.5312   -1.8976 C.3       1 <0>         0.0000
      7 C7          2.5798   -4.7765   -1.3563 C.3       1 <0>         0.0000
      8 C8          1.0336   -2.8618   -1.8044 C.3       1 <0>         0.0000
      9 C9         -0.8899   -3.3247    2.1744 C.3       1 <0>         0.0000
     10 C10         6.4405   -2.1272    2.9267 C.3       1 <0>         0.0000
     11 C11         7.1342   -3.0688    0.6654 C.3       1 <0>         0.0000
     12 C12         5.9953   -2.9363    1.6910 C.3       1 <0>         0.0000
     13 C13         2.4245   -2.8999    0.3599 C.3       1 <0>         0.0000
     14 C14         5.2854   -1.5605    3.7815 C.3       1 <0>         0.0000
     15 C15         2.3718   -3.2623   -1.1540 C.3       1 <0>         0.0000
     16 N1          0.2223   -2.8565    1.3827 N.am      1 <0>         0.0000
     17 N2          3.6959   -3.2182    0.9688 N.am      1 <0>         0.0000
     18 N3          8.3392   -3.6246    1.2202 N.am      1 <0>         0.0000
     19 O1          9.4449   -2.8013    1.1353 O.3       1 <0>         0.0000
     20 O2          7.6451   -5.7091    1.9723 O.2       1 <0>         0.0000
     21 O3          4.7482   -1.1914    0.5542 O.2       1 <0>         0.0000
     22 O4          1.5569   -4.7218    1.7089 O.2       1 <0>         0.0000
     23 H1          9.5436   -5.0368    2.1563 H         1 <0>         0.0000
     24 H2          4.9413   -3.3577    4.9559 H         1 <0>         0.0000
     25 H3          3.9024   -3.2272    3.5274 H         1 <0>         0.0000
     26 H4          3.5825   -2.2387    4.9650 H         1 <0>         0.0000
     27 H5          6.4829   -1.3559    5.5951 H         1 <0>         0.0000
     28 H6          6.4731    0.0869    4.5647 H         1 <0>         0.0000
     29 H7          5.0558   -0.3059    5.5456 H         1 <0>         0.0000
     30 H8          3.4182   -1.4447   -1.7906 H         1 <0>         0.0000
     31 H9          3.5120   -2.7653   -2.9677 H         1 <0>         0.0000
     32 H10         4.4918   -2.8203   -1.5020 H         1 <0>         0.0000
     33 H11         1.7979   -5.3538   -0.8491 H         1 <0>         0.0000
     34 H12         3.5395   -5.1121   -0.9494 H         1 <0>         0.0000
     35 H13         2.5489   -5.0416   -2.4191 H         1 <0>         0.0000
     36 H14         0.1926   -3.3589   -1.3070 H         1 <0>         0.0000
     37 H15         0.9978   -3.1431   -2.8622 H         1 <0>         0.0000
     38 H16         0.8573   -1.7835   -1.7352 H         1 <0>         0.0000
     39 H17        -1.5882   -3.8849    1.5471 H         1 <0>         0.0000
     40 H18        -1.4189   -2.4783    2.6208 H         1 <0>         0.0000
     41 H19        -0.5348   -3.9781    2.9759 H         1 <0>         0.0000
     42 H20         7.0676   -2.7656    3.5633 H         1 <0>         0.0000
     43 H21         7.0772   -1.2922    2.6058 H         1 <0>         0.0000
     44 H22         6.8299   -3.7170   -0.1632 H         1 <0>         0.0000
     45 H23         7.4005   -2.0938    0.2440 H         1 <0>         0.0000
     46 H24         5.7385   -3.9535    2.0094 H         1 <0>         0.0000
     47 H25         2.3043   -1.8161    0.4837 H         1 <0>         0.0000
     48 H26         4.6755   -0.8860    3.1694 H         1 <0>         0.0000
     49 H27         0.1595   -1.9470    0.9352 H         1 <0>         0.0000
     50 H28         3.8157   -4.1378    1.3829 H         1 <0>         0.0000
@<TRIPOS>BOND
     1    1   18 am
     2    1   20 2
     3    2   12 1
     4    2   17 am
     5    2   21 2
     6    3   13 1
     7    3   16 am
     8    3   22 2
     9    4   14 1
    10    5   14 1
    11    6   15 1
    12    7   15 1
    13    8   15 1
    14    9   16 1
    15   10   12 1
    16   10   14 1
    17   11   12 1
    18   11   18 1
    19   13   15 1
    20   13   17 1
    21   18   19 1
    22    1   23 1
    23    4   24 1
    24    4   25 1
    25    4   26 1
    26    5   27 1
    27    5   28 1
    28    5   29 1
    29    6   30 1
    30    6   31 1
    31    6   32 1
    32    7   33 1
    33    7   34 1
    34    7   35 1
    35    8   36 1
    36    8   37 1
    37    8   38 1
    38    9   39 1
    39    9   40 1
    40    9   41 1
    41   10   42 1
    42   10   43 1
    43   11   44 1
    44   11   45 1
    45   12   46 1
    46   13   47 1
    47   14   48 1
    48   16   49 1
    49   17   50 1
@<TRIPOS>MOLECULE
LIGAND
   50    49     0     0     0
SMALL
NO_CHARGES

@<TRIPOS>ATOM
      1 C1          6.3614   -4.3242   -1.3889 C.2       1 <0>         0.0000
      2 C2          4.7609   -2.3304    1.0158 C.2       1 <0>         0.0000
      3 C3          1.6238   -2.1763    1.4428 C.2       1 <0>         0.0000
      4 C4          4.8998   -3.3220    4.5808 C.3       1 <0>         0.0000
      5 C5          5.9126   -1.1117    5.1647 C.3       1 <0>         0.0000
      6 C6          2.6382   -4.8237   -1.2732 C.3       1 <0>         0.0000
      7 C7          1.4139   -5.1834    0.8654 C.3       1 <0>         0.0000
      8 C8          0.3871   -3.7862   -0.9377 C.3       1 <0>         0.0000
      9 C9          1.1427   -2.2044    3.8715 C.3       1 <0>         0.0000
     10 C10         6.4405   -2.1272    2.9267 C.3       1 <0>         0.0000
     11 C11         7.1342   -3.0688    0.6654 C.3       1 <0>         0.0000
     12 C12         5.9953   -2.9363    1.6910 C.3       1 <0>         0.0000
     13 C13         2.4245   -2.8999    0.3599 C.3       1 <0>         0.0000
     14 C14         5.3645   -1.9750    4.0244 C.3       1 <0>         0.0000
     15 C15         1.7114   -4.1488   -0.2382 C.3       1 <0>         0.0000
     16 N1          1.8198   -2.7177    2.7048 N.am      1 <0>         0.0000
     17 N2          3.6959   -3.2182    0.9688 N.am      1 <0>         0.0000
     18 N3          7.0083   -4.2255   -0.1801 N.am      1 <0>         0.0000
     19 O1          7.6218   -5.3633    0.3064 O.3       1 <0>         0.0000
     20 O2          6.2738   -5.3310   -2.0855 O.2       1 <0>         0.0000
     21 O3          4.7482   -1.1914    0.5542 O.2       1 <0>         0.0000
     22 O4          0.8744   -1.2316    1.1999 O.2       1 <0>         0.0000
     23 H1          5.8939   -3.3791   -1.7172 H         1 <0>         0.0000
     24 H2          5.7423   -3.8772    5.0075 H         1 <0>         0.0000
     25 H3          4.4501   -3.9417    3.7978 H         1 <0>         0.0000
     26 H4          4.1642   -3.1925    5.3800 H         1 <0>         0.0000
     27 H5          6.7922   -1.5734    5.6261 H         1 <0>         0.0000
     28 H6          6.2016   -0.1209    4.7985 H         1 <0>         0.0000
     29 H7          5.1564   -0.9697    5.9440 H         1 <0>         0.0000
     30 H8          2.8872   -4.1345   -2.0879 H         1 <0>         0.0000
     31 H9          2.1738   -5.7124   -1.7140 H         1 <0>         0.0000
     32 H10         3.5794   -5.1449   -0.8119 H         1 <0>         0.0000
     33 H11         0.7565   -4.7621    1.6349 H         1 <0>         0.0000
     34 H12         2.3282   -5.5113    1.3711 H         1 <0>         0.0000
     35 H13         0.9158   -6.0685    0.4541 H         1 <0>         0.0000
     36 H14        -0.3050   -3.3025   -0.2384 H         1 <0>         0.0000
     37 H15        -0.1179   -4.6740   -1.3329 H         1 <0>         0.0000
     38 H16         0.5457   -3.0900   -1.7676 H         1 <0>         0.0000
     39 H17         1.7401   -1.4157    4.3360 H         1 <0>         0.0000
     40 H18         0.9874   -3.0042    4.6007 H         1 <0>         0.0000
     41 H19         0.1698   -1.7909    3.5925 H         1 <0>         0.0000
     42 H20         7.3251   -2.6069    3.3666 H         1 <0>         0.0000
     43 H21         6.7588   -1.1249    2.6110 H         1 <0>         0.0000
     44 H22         7.1645   -2.1910    0.0112 H         1 <0>         0.0000
     45 H23         8.1063   -3.1455    1.1636 H         1 <0>         0.0000
     46 H24         5.7385   -3.9535    2.0094 H         1 <0>         0.0000
     47 H25         2.6549   -2.1876   -0.4426 H         1 <0>         0.0000
     48 H26         4.4913   -1.4577    3.6101 H         1 <0>         0.0000
     49 H27         2.4595   -3.4993    2.8111 H         1 <0>         0.0000
     50 H28         3.8157   -4.1378    1.3829 H         1 <0>         0.0000
@<TRIPOS>BOND
     1    1   18 am
     2    1   20 2
     3    2   12 1
     4    2   17 am
     5    2   21 2
     6    3   13 1
     7    3   16 am
     8    3   22 2
     9    4   14 1
    10    5   14 1
    11    6   15 1
    12    7   15 1
    13    8   15 1
    14    9   16 1
    15   10   12 1
    16   10   14 1
    17   11   12 1
    18   11   18 1
    19   13   15 1
    20   13   17 1
    21   18   19 1
    22    1   23 1
    23    4   24 1
    24    4   25 1
    25    4   26 1
    26    5   27 1
    27    5   28 1
    28    5   29 1
    29    6   30 1
    30    6   31 1
    31    6   32 1
    32    7   33 1
    33    7   34 1
    34    7   35 1
    35    8   36 1
    36    8   37 1
    37    8   38 1
    38    9   39 1
    39    9   40 1
    40    9   41 1
    41   10   42 1
    42   10   43 1
    43   11   44 1
    44   11   45 1
    45   12   46 1
    46   13   47 1
    47   14   48 1
    48   16   49 1
    49   17   50 1
@<TRIPOS>MOLECULE
LIGAND
   50    49     0     0     0
SMALL
NO_CHARGES

@<TRIPOS>ATOM
      1 C1          5.4987   -5.9066    0.7176 C.2       1 <0>         0.0000
      2 C2          4.7609   -2.3304    1.0158 C.2       1 <0>         0.0000
      3 C3          1.9548   -1.6162    1.0446 C.2       1 <0>         0.0000
      4 C4          5.5916   -1.8934    4.5978 C.3       1 <0>         0.0000
      5 C5          7.0929    0.0222    4.0244 C.3       1 <0>         0.0000
      6 C6          2.0155   -5.3270   -0.2360 C.3       1 <0>         0.0000
      7 C7          1.1035   -4.4371    1.9036 C.3       1 <0>         0.0000
      8 C8          0.0778   -3.7458   -0.2707 C.3       1 <0>         0.0000
      9 C9          0.8348    0.5461    0.5966 C.3       1 <0>         0.0000
     10 C10         6.8665   -1.8668    2.3816 C.3       1 <0>         0.0000
     11 C11         6.8055   -3.7427    0.6616 C.3       1 <0>         0.0000
     12 C12         5.9953   -2.9363    1.6910 C.3       1 <0>         0.0000
     13 C13         2.4245   -2.8999    0.3599 C.3       1 <0>         0.0000
     14 C14         6.1374   -1.0321    3.4575 C.3       1 <0>         0.0000
     15 C15         1.4067   -4.0765    0.4357 C.3       1 <0>         0.0000
     16 N1          1.3343   -0.7384    0.1680 N.am      1 <0>         0.0000
     17 N2          3.6959   -3.2182    0.9688 N.am      1 <0>         0.0000
     18 N3          6.0655   -4.8296    0.0787 N.am      1 <0>         0.0000
     19 O1          5.9219   -4.7576   -1.2931 O.3       1 <0>         0.0000
     20 O2          5.5264   -6.1325    1.9238 O.2       1 <0>         0.0000
     21 O3          4.7482   -1.1914    0.5542 O.2       1 <0>         0.0000
     22 O4          2.1356   -1.3931    2.2407 O.2       1 <0>         0.0000
     23 H1          4.9820   -6.6031    0.0338 H         1 <0>         0.0000
     24 H2          6.4006   -2.4456    5.0885 H         1 <0>         0.0000
     25 H3          4.8609   -2.6219    4.2310 H         1 <0>         0.0000
     26 H4          5.1097   -1.2817    5.3659 H         1 <0>         0.0000
     27 H5          7.9623   -0.4436    4.5008 H         1 <0>         0.0000
     28 H6          7.4545    0.6861    3.2321 H         1 <0>         0.0000
     29 H7          6.5886    0.6429    4.7727 H         1 <0>         0.0000
     30 H8          2.2541   -5.1329   -1.2877 H         1 <0>         0.0000
     31 H9          1.3305   -6.1810   -0.1982 H         1 <0>         0.0000
     32 H10         2.9425   -5.6329    0.2628 H         1 <0>         0.0000
     33 H11         0.6668   -3.5850    2.4375 H         1 <0>         0.0000
     34 H12         2.0104   -4.7234    2.4466 H         1 <0>         0.0000
     35 H13         0.3913   -5.2673    1.9681 H         1 <0>         0.0000
     36 H14        -0.3923   -2.8611    0.1746 H         1 <0>         0.0000
     37 H15        -0.6390   -4.5698   -0.1902 H         1 <0>         0.0000
     38 H16         0.2276   -3.5306   -1.3336 H         1 <0>         0.0000
     39 H17        -0.2038    0.4548    0.9249 H         1 <0>         0.0000
     40 H18         0.8817    1.2638   -0.2270 H         1 <0>         0.0000
     41 H19         1.4345    0.9267    1.4277 H         1 <0>         0.0000
     42 H20         7.7322   -2.3581    2.8457 H         1 <0>         0.0000
     43 H21         7.2705   -1.1813    1.6250 H         1 <0>         0.0000
     44 H22         7.1326   -3.0962   -0.1597 H         1 <0>         0.0000
     45 H23         7.7004   -4.1783    1.1181 H         1 <0>         0.0000
     46 H24         5.6479   -3.6501    2.4472 H         1 <0>         0.0000
     47 H25         2.6512   -2.6760   -0.6903 H         1 <0>         0.0000
     48 H26         5.2955   -0.5008    2.9986 H         1 <0>         0.0000
     49 H27         1.2283   -1.0078   -0.8054 H         1 <0>         0.0000
     50 H28         3.8157   -4.1378    1.3829 H         1 <0>         0.0000
@<TRIPOS>BOND
     1    1   18 am
     2    1   20 2
     3    2   12 1
     4    2   17 am
     5    2   21 2
     6    3   13 1
     7    3   16 am
     8    3   22 2
     9    4   14 1
    10    5   14 1
    11    6   15 1
    12    7   15 1
    13    8   15 1
    14    9   16 1
    15   10   12 1
    16   10   14 1
    17   11   12 1
    18   11   18 1
    19   13   15 1
    20   13   17 1
    21   18   19 1
    22    1   23 1
    23    4   24 1
    24    4   25 1
    25    4   26 1
    26    5   27 1
    27    5   28 1
    28    5   29 1
    29    6   30 1
    30    6   31 1
    31    6   32 1
    32    7   33 1
    33    7   34 1
    34    7   35 1
    35    8   36 1
    36    8   37 1
    37    8   38 1
    38    9   39 1
    39    9   40 1
    40    9   41 1
    41   10   42 1
    42   10   43 1
    43   11   44 1
    44   11   45 1
    45   12   46 1
    46   13   47 1
    47   14   48 1
    48   16   49 1
    49   17   50 1
@<TRIPOS>MOLECULE
LIGAND
   50    49     0     0     0
SMALL
NO_CHARGES

@<TRIPOS>ATOM
      1 C1          8.0812   -5.2529    2.2381 C.2       1 <0>         0.0000
      2 C2          4.7609   -2.3304    1.0158 C.2       1 <0>         0.0000
      3 C3          1.3743   -3.6105    1.2141 C.2       1 <0>         0.0000
      4 C4          5.5916   -1.8934    4.5978 C.3       1 <0>         0.0000
      5 C5          7.0929    0.0222    4.0244 C.3       1 <0>         0.0000
      6 C6          2.9144   -2.0789   -1.9851 C.3       1 <0>         0.0000
      7 C7          3.2618   -4.4861   -1.4495 C.3       1 <0>         0.0000
      8 C8          0.9399   -3.5730   -1.6309 C.3       1 <0>         0.0000
      9 C9         -0.4638   -3.1822    2.8167 C.3       1 <0>         0.0000
     10 C10         6.8665   -1.8668    2.3816 C.3       1 <0>         0.0000
     11 C11         6.8055   -3.7427    0.6616 C.3       1 <0>         0.0000
     12 C12         5.9953   -2.9363    1.6910 C.3       1 <0>         0.0000
     13 C13         2.4245   -2.8999    0.3599 C.3       1 <0>         0.0000
     14 C14         6.1374   -1.0321    3.4575 C.3       1 <0>         0.0000
     15 C15         2.3718   -3.2623   -1.1540 C.3       1 <0>         0.0000
     16 N1          0.5772   -2.7269    1.9268 N.am      1 <0>         0.0000
     17 N2          3.6959   -3.2182    0.9688 N.am      1 <0>         0.0000
     18 N3          7.9912   -4.3422    1.2125 N.am      1 <0>         0.0000
     19 O1          9.1704   -3.9351    0.6197 O.3       1 <0>         0.0000
     20 O2          7.1439   -5.7230    2.8761 O.2       1 <0>         0.0000
     21 O3          4.7482   -1.1914    0.5542 O.2       1 <0>         0.0000
     22 O4          1.2756   -4.8354    1.2685 O.2       1 <0>         0.0000
     23 H1          9.1177   -5.5563    2.4686 H         1 <0>         0.0000
     24 H2          6.4006   -2.4456    5.0885 H         1 <0>         0.0000
     25 H3          4.8609   -2.6219    4.2310 H         1 <0>         0.0000
     26 H4          5.1097   -1.2817    5.3659 H         1 <0>         0.0000
     27 H5          7.9623   -0.4436    4.5008 H         1 <0>         0.0000
     28 H6          7.4545    0.6861    3.2321 H         1 <0>         0.0000
     29 H7          6.5886    0.6429    4.7727 H         1 <0>         0.0000
     30 H8          2.3199   -1.1739   -1.8172 H         1 <0>         0.0000
     31 H9          2.8994   -2.2973   -3.0585 H         1 <0>         0.0000
     32 H10         3.9518   -1.8484   -1.7158 H         1 <0>         0.0000
     33 H11         2.9258   -5.3642   -0.8858 H         1 <0>         0.0000
     34 H12         4.3049   -4.3063   -1.1689 H         1 <0>         0.0000
     35 H13         3.2353   -4.7468   -2.5135 H         1 <0>         0.0000
     36 H14         0.5126   -4.4101   -1.0664 H         1 <0>         0.0000
     37 H15         0.9176   -3.8503   -2.6901 H         1 <0>         0.0000
     38 H16         0.2727   -2.7163   -1.4916 H         1 <0>         0.0000
     39 H17        -1.4067   -3.2811    2.2725 H         1 <0>         0.0000
     40 H18        -0.6020   -2.4684    3.6333 H         1 <0>         0.0000
     41 H19        -0.1993   -4.1542    3.2419 H         1 <0>         0.0000
     42 H20         7.7322   -2.3581    2.8457 H         1 <0>         0.0000
     43 H21         7.2705   -1.1813    1.6250 H         1 <0>         0.0000
     44 H22         6.1970   -4.5521    0.2444 H         1 <0>         0.0000
     45 H23         7.1292   -3.1080   -0.1699 H         1 <0>         0.0000
     46 H24         5.6479   -3.6501    2.4472 H         1 <0>         0.0000
     47 H25         2.3043   -1.8161    0.4837 H         1 <0>         0.0000
     48 H26         5.2955   -0.5008    2.9986 H         1 <0>         0.0000
     49 H27         0.7309   -1.7288    1.8190 H         1 <0>         0.0000
     50 H28         3.8157   -4.1378    1.3829 H         1 <0>         0.0000
@<TRIPOS>BOND
     1    1   18 am
     2    1   20 2
     3    2   12 1
     4    2   17 am
     5    2   21 2
     6    3   13 1
     7    3   16 am
     8    3   22 2
     9    4   14 1
    10    5   14 1
    11    6   15 1
    12    7   15 1
    13    8   15 1
    14    9   16 1
    15   10   12 1
    16   10   14 1
    17   11   12 1
    18   11   18 1
    19   13   15 1
    20   13   17 1
    21   18   19 1
    22    1   23 1
    23    4   24 1
    24    4   25 1
    25    4   26 1
    26    5   27 1
    27    5   28 1
    28    5   29 1
    29    6   30 1
    30    6   31 1
    31    6   32 1
    32    7   33 1
    33    7   34 1
    34    7   35 1
    35    8   36 1
    36    8   37 1
    37    8   38 1
    38    9   39 1
    39    9   40 1
    40    9   41 1
    41   10   42 1
    42   10   43 1
    43   11   44 1
    44   11   45 1
    45   12   46 1
    46   13   47 1
    47   14   48 1
    48   16   49 1
    49   17   50 1
@<TRIPOS>MOLECULE
LIGAND
   50    49     0     0     0
SMALL
NO_CHARGES

@<TRIPOS>ATOM
      1 C1          8.8786   -4.2413    1.6879 C.2       1 <0>         0.0000
      2 C2          4.7609   -2.3304    1.0158 C.2       1 <0>         0.0000
      3 C3          1.6238   -2.1763    1.4428 C.2       1 <0>         0.0000
      4 C4          5.4286   -5.0551    3.9022 C.3       1 <0>         0.0000
      5 C5          5.1681   -3.1669    5.5205 C.3       1 <0>         0.0000
      6 C6          2.6382   -4.8237   -1.2732 C.3       1 <0>         0.0000
      7 C7          1.4139   -5.1834    0.8654 C.3       1 <0>         0.0000
      8 C8          0.3871   -3.7862   -0.9377 C.3       1 <0>         0.0000
      9 C9          0.0532   -0.2939    1.7895 C.3       1 <0>         0.0000
     10 C10         6.0212   -2.6662    3.2096 C.3       1 <0>         0.0000
     11 C11         7.2695   -2.4142    1.0053 C.3       1 <0>         0.0000
     12 C12         5.9953   -2.9363    1.6910 C.3       1 <0>         0.0000
     13 C13         2.4245   -2.8999    0.3599 C.3       1 <0>         0.0000
     14 C14         5.0884   -3.5706    4.0452 C.3       1 <0>         0.0000
     15 C15         1.7114   -4.1488   -0.2382 C.3       1 <0>         0.0000
     16 N1          0.8675   -1.1285    0.9389 N.am      1 <0>         0.0000
     17 N2          3.6959   -3.2182    0.9688 N.am      1 <0>         0.0000
     18 N3          8.4808   -2.9296    1.5848 N.am      1 <0>         0.0000
     19 O1          9.3307   -1.9667    2.0928 O.3       1 <0>         0.0000
     20 O2          9.9227   -4.6461    2.1905 O.2       1 <0>         0.0000
     21 O3          4.7482   -1.1914    0.5542 O.2       1 <0>         0.0000
     22 O4          1.6741   -2.4892    2.6314 O.2       1 <0>         0.0000
     23 H1          8.1529   -4.9569    1.2626 H         1 <0>         0.0000
     24 H2          6.4596   -5.2491    4.2175 H         1 <0>         0.0000
     25 H3          5.3256   -5.3883    2.8641 H         1 <0>         0.0000
     26 H4          4.7804   -5.6761    4.5273 H         1 <0>         0.0000
     27 H5          6.1838   -3.2884    5.9121 H         1 <0>         0.0000
     28 H6          4.8754   -2.1200    5.6540 H         1 <0>         0.0000
     29 H7          4.4947   -3.7797    6.1290 H         1 <0>         0.0000
     30 H8          2.8872   -4.1345   -2.0879 H         1 <0>         0.0000
     31 H9          2.1738   -5.7124   -1.7140 H         1 <0>         0.0000
     32 H10         3.5794   -5.1449   -0.8119 H         1 <0>         0.0000
     33 H11         0.7565   -4.7621    1.6349 H         1 <0>         0.0000
     34 H12         2.3282   -5.5113    1.3711 H         1 <0>         0.0000
     35 H13         0.9158   -6.0685    0.4541 H         1 <0>         0.0000
     36 H14        -0.3050   -3.3025   -0.2384 H         1 <0>         0.0000
     37 H15        -0.1179   -4.6740   -1.3329 H         1 <0>         0.0000
     38 H16         0.5457   -3.0900   -1.7676 H         1 <0>         0.0000
     39 H17        -0.9522   -0.7139    1.8767 H         1 <0>         0.0000
     40 H18        -0.0213    0.7135    1.3710 H         1 <0>         0.0000
     41 H19         0.4945   -0.2269    2.7876 H         1 <0>         0.0000
     42 H20         7.0493   -2.7891    3.5757 H         1 <0>         0.0000
     43 H21         5.7503   -1.6191    3.3985 H         1 <0>         0.0000
     44 H22         7.2745   -2.6901   -0.0546 H         1 <0>         0.0000
     45 H23         7.3301   -1.3226    1.0647 H         1 <0>         0.0000
     46 H24         5.9704   -4.0198    1.5260 H         1 <0>         0.0000
     47 H25         2.6549   -2.1876   -0.4426 H         1 <0>         0.0000
     48 H26         4.0519   -3.4254    3.7195 H         1 <0>         0.0000
     49 H27         0.8872   -0.9429   -0.0594 H         1 <0>         0.0000
     50 H28         3.8157   -4.1378    1.3829 H         1 <0>         0.0000
@<TRIPOS>BOND
     1    1   18 am
     2    1   20 2
     3    2   12 1
     4    2   17 am
     5    2   21 2
     6    3   13 1
     7    3   16 am
     8    3   22 2
     9    4   14 1
    10    5   14 1
    11    6   15 1
    12    7   15 1
    13    8   15 1
    14    9   16 1
    15   10   12 1
    16   10   14 1
    17   11   12 1
    18   11   18 1
    19   13   15 1
    20   13   17 1
    21   18   19 1
    22    1   23 1
    23    4   24 1
    24    4   25 1
    25    4   26 1
    26    5   27 1
    27    5   28 1
    28    5   29 1
    29    6   30 1
    30    6   31 1
    31    6   32 1
    32    7   33 1
    33    7   34 1
    34    7   35 1
    35    8   36 1
    36    8   37 1
    37    8   38 1
    38    9   39 1
    39    9   40 1
    40    9   41 1
    41   10   42 1
    42   10   43 1
    43   11   44 1
    44   11   45 1
    45   12   46 1
    46   13   47 1
    47   14   48 1
    48   16   49 1
    49   17   50 1
@<TRIPOS>MOLECULE
LIGAND
   50    49     0     0     0
SMALL
NO_CHARGES

@<TRIPOS>ATOM
      1 C1          9.3915   -2.9562    1.7991 C.2       1 <0>         0.0000
      2 C2          4.7609   -2.3304    1.0158 C.2       1 <0>         0.0000
      3 C3          1.3743   -3.6105    1.2141 C.2       1 <0>         0.0000
      4 C4          4.8998   -3.3220    4.5808 C.3       1 <0>         0.0000
      5 C5          5.9126   -1.1117    5.1647 C.3       1 <0>         0.0000
      6 C6          2.9144   -2.0789   -1.9851 C.3       1 <0>         0.0000
      7 C7          3.2618   -4.4861   -1.4495 C.3       1 <0>         0.0000
      8 C8          0.9399   -3.5730   -1.6309 C.3       1 <0>         0.0000
      9 C9         -0.4638   -3.1822    2.8167 C.3       1 <0>         0.0000
     10 C10         6.4405   -2.1272    2.9267 C.3       1 <0>         0.0000
     11 C11         7.1342   -3.0688    0.6654 C.3       1 <0>         0.0000
     12 C12         5.9953   -2.9363    1.6910 C.3       1 <0>         0.0000
     13 C13         2.4245   -2.8999    0.3599 C.3       1 <0>         0.0000
     14 C14         5.3645   -1.9750    4.0244 C.3       1 <0>         0.0000
     15 C15         2.3718   -3.2623   -1.1540 C.3       1 <0>         0.0000
     16 N1          0.5772   -2.7269    1.9268 N.am      1 <0>         0.0000
     17 N2          3.6959   -3.2182    0.9688 N.am      1 <0>         0.0000
     18 N3          8.3392   -3.6246    1.2202 N.am      1 <0>         0.0000
     19 O1          8.4234   -5.0014    1.1494 O.3       1 <0>         0.0000
     20 O2          9.4874   -1.7414    1.9463 O.2       1 <0>         0.0000
     21 O3          4.7482   -1.1914    0.5542 O.2       1 <0>         0.0000
     22 O4          1.2756   -4.8354    1.2685 O.2       1 <0>         0.0000
     23 H1         10.1997   -3.6235    2.1473 H         1 <0>         0.0000
     24 H2          5.7423   -3.8772    5.0075 H         1 <0>         0.0000
     25 H3          4.4501   -3.9417    3.7978 H         1 <0>         0.0000
     26 H4          4.1642   -3.1925    5.3800 H         1 <0>         0.0000
     27 H5          6.7922   -1.5734    5.6261 H         1 <0>         0.0000
     28 H6          6.2016   -0.1209    4.7985 H         1 <0>         0.0000
     29 H7          5.1564   -0.9697    5.9440 H         1 <0>         0.0000
     30 H8          2.3199   -1.1739   -1.8172 H         1 <0>         0.0000
     31 H9          2.8994   -2.2973   -3.0585 H         1 <0>         0.0000
     32 H10         3.9518   -1.8484   -1.7158 H         1 <0>         0.0000
     33 H11         2.9258   -5.3642   -0.8858 H         1 <0>         0.0000
     34 H12         4.3049   -4.3063   -1.1689 H         1 <0>         0.0000
     35 H13         3.2353   -4.7468   -2.5135 H         1 <0>         0.0000
     36 H14         0.5126   -4.4101   -1.0664 H         1 <0>         0.0000
     37 H15         0.9176   -3.8503   -2.6901 H         1 <0>         0.0000
     38 H16         0.2727   -2.7163   -1.4916 H         1 <0>         0.0000
     39 H17        -1.4067   -3.2811    2.2725 H         1 <0>         0.0000
     40 H18        -0.6020   -2.4684    3.6333 H         1 <0>         0.0000
     41 H19        -0.1993   -4.1542    3.2419 H         1 <0>         0.0000
     42 H20         7.3251   -2.6069    3.3666 H         1 <0>         0.0000
     43 H21         6.7588   -1.1249    2.6110 H         1 <0>         0.0000
     44 H22         6.8299   -3.7170   -0.1632 H         1 <0>         0.0000
     45 H23         7.4005   -2.0938    0.2440 H         1 <0>         0.0000
     46 H24         5.7385   -3.9535    2.0094 H         1 <0>         0.0000
     47 H25         2.3043   -1.8161    0.4837 H         1 <0>         0.0000
     48 H26         4.4913   -1.4577    3.6101 H         1 <0>         0.0000
     49 H27         0.7309   -1.7288    1.8190 H         1 <0>         0.0000
     50 H28         3.8157   -4.1378    1.3829 H         1 <0>         0.0000
@<TRIPOS>BOND
     1    1   18 am
     2    1   20 2
     3    2   12 1
     4    2   17 am
     5    2   21 2
     6    3   13 1
     7    3   16 am
     8    3   22 2
     9    4   14 1
    10    5   14 1
    11    6   15 1
    12    7   15 1
    13    8   15 1
    14    9   16 1
    15   10   12 1
    16   10   14 1
    17   11   12 1
    18   11   18 1
    19   13   15 1
    20   13   17 1
    21   18   19 1
    22    1   23 1
    23    4   24 1
    24    4   25 1
    25    4   26 1
    26    5   27 1
    27    5   28 1
    28    5   29 1
    29    6   30 1
    30    6   31 1
    31    6   32 1
    32    7   33 1
    33    7   34 1
    34    7   35 1
    35    8   36 1
    36    8   37 1
    37    8   38 1
    38    9   39 1
    39    9   40 1
    40    9   41 1
    41   10   42 1
    42   10   43 1
    43   11   44 1
    44   11   45 1
    45   12   46 1
    46   13   47 1
    47   14   48 1
    48   16   49 1
    49   17   50 1
@<TRIPOS>MOLECULE
LIGAND
   50    49     0     0     0
SMALL
NO_CHARGES

@<TRIPOS>ATOM
      1 C1          7.2692   -4.4380    4.7238 C.2       1 <0>         0.0000
      2 C2          4.7609   -2.3304    1.0158 C.2       1 <0>         0.0000
      3 C3          1.6238   -2.1763    1.4428 C.2       1 <0>         0.0000
      4 C4          7.9668   -2.9805   -0.7195 C.3       1 <0>         0.0000
      5 C5          7.2752   -5.3485   -1.1277 C.3       1 <0>         0.0000
      6 C6          2.6382   -4.8237   -1.2732 C.3       1 <0>         0.0000
      7 C7          1.4139   -5.1834    0.8654 C.3       1 <0>         0.0000
      8 C8          0.3871   -3.7862   -0.9377 C.3       1 <0>         0.0000
      9 C9          0.7109    0.0436    2.0502 C.3       1 <0>         0.0000
     10 C10         6.4903   -4.2069    0.9698 C.3       1 <0>         0.0000
     11 C11         5.6912   -3.2135    3.1734 C.3       1 <0>         0.0000
     12 C12         5.9953   -2.9363    1.6910 C.3       1 <0>         0.0000
     13 C13         2.4245   -2.8999    0.3599 C.3       1 <0>         0.0000
     14 C14         6.8518   -4.0083   -0.5189 C.3       1 <0>         0.0000
     15 C15         1.7114   -4.1488   -0.2382 C.3       1 <0>         0.0000
     16 N1          1.4216   -0.8351    1.1525 N.am      1 <0>         0.0000
     17 N2          3.6959   -3.2182    0.9688 N.am      1 <0>         0.0000
     18 N3          6.8729   -3.3510    3.9817 N.am      1 <0>         0.0000
     19 O1          7.6925   -2.2394    3.9964 O.3       1 <0>         0.0000
     20 O2          8.2875   -4.5206    5.4041 O.2       1 <0>         0.0000
     21 O3          4.7482   -1.1914    0.5542 O.2       1 <0>         0.0000
     22 O4          1.2284   -2.7340    2.4655 O.2       1 <0>         0.0000
     23 H1          6.5686   -5.2898    4.6670 H         1 <0>         0.0000
     24 H2          8.8753   -3.2848   -0.1883 H         1 <0>         0.0000
     25 H3          7.6713   -1.9951   -0.3441 H         1 <0>         0.0000
     26 H4          8.2323   -2.8793   -1.7758 H         1 <0>         0.0000
     27 H5          8.1599   -5.7527   -0.6240 H         1 <0>         0.0000
     28 H6          6.4698   -6.0859   -1.0440 H         1 <0>         0.0000
     29 H7          7.5125   -5.2358   -2.1909 H         1 <0>         0.0000
     30 H8          2.8872   -4.1345   -2.0879 H         1 <0>         0.0000
     31 H9          2.1738   -5.7124   -1.7140 H         1 <0>         0.0000
     32 H10         3.5794   -5.1449   -0.8119 H         1 <0>         0.0000
     33 H11         0.7565   -4.7621    1.6349 H         1 <0>         0.0000
     34 H12         2.3282   -5.5113    1.3711 H         1 <0>         0.0000
     35 H13         0.9158   -6.0685    0.4541 H         1 <0>         0.0000
     36 H14        -0.3050   -3.3025   -0.2384 H         1 <0>         0.0000
     37 H15        -0.1179   -4.6740   -1.3329 H         1 <0>         0.0000
     38 H16         0.5457   -3.0900   -1.7676 H         1 <0>         0.0000
     39 H17        -0.3565    0.0379    1.8148 H         1 <0>         0.0000
     40 H18         1.0868    1.0659    1.9547 H         1 <0>         0.0000
     41 H19         0.8449   -0.2838    3.0846 H         1 <0>         0.0000
     42 H20         7.3727   -4.5944    1.4964 H         1 <0>         0.0000
     43 H21         5.7222   -4.9884    1.0394 H         1 <0>         0.0000
     44 H22         5.0986   -2.3982    3.6018 H         1 <0>         0.0000
     45 H23         5.1177   -4.1388    3.2917 H         1 <0>         0.0000
     46 H24         6.7931   -2.1847    1.6686 H         1 <0>         0.0000
     47 H25         2.6549   -2.1876   -0.4426 H         1 <0>         0.0000
     48 H26         5.9671   -3.6628   -1.0661 H         1 <0>         0.0000
     49 H27         1.7849   -0.4599    0.2815 H         1 <0>         0.0000
     50 H28         3.8157   -4.1378    1.3829 H         1 <0>         0.0000
@<TRIPOS>BOND
     1    1   18 am
     2    1   20 2
     3    2   12 1
     4    2   17 am
     5    2   21 2
     6    3   13 1
     7    3   16 am
     8    3   22 2
     9    4   14 1
    10    5   14 1
    11    6   15 1
    12    7   15 1
    13    8   15 1
    14    9   16 1
    15   10   12 1
    16   10   14 1
    17   11   12 1
    18   11   18 1
    19   13   15 1
    20   13   17 1
    21   18   19 1
    22    1   23 1
    23    4   24 1
    24    4   25 1
    25    4   26 1
    26    5   27 1
    27    5   28 1
    28    5   29 1
    29    6   30 1
    30    6   31 1
    31    6   32 1
    32    7   33 1
    33    7   34 1
    34    7   35 1
    35    8   36 1
    36    8   37 1
    37    8   38 1
    38    9   39 1
    39    9   40 1
    40    9   41 1
    41   10   42 1
    42   10   43 1
    43   11   44 1
    44   11   45 1
    45   12   46 1
    46   13   47 1
    47   14   48 1
    48   16   49 1
    49   17   50 1
@<TRIPOS>MOLECULE
LIGAND
   50    49     0     0     0
SMALL
NO_CHARGES

@<TRIPOS>ATOM
      1 C1          9.3915   -2.9562    1.7991 C.2       1 <0>         0.0000
      2 C2          4.7609   -2.3304    1.0158 C.2       1 <0>         0.0000
      3 C3          1.4114   -2.9063    1.5049 C.2       1 <0>         0.0000
      4 C4          4.8998   -3.3220    4.5808 C.3       1 <0>         0.0000
      5 C5          5.9126   -1.1117    5.1647 C.3       1 <0>         0.0000
      6 C6          2.6765   -3.3019   -2.1277 C.3       1 <0>         0.0000
      7 C7          2.6544   -5.2554   -0.5834 C.3       1 <0>         0.0000
      8 C8          0.5425   -3.9869   -1.0173 C.3       1 <0>         0.0000
      9 C9         -0.0359   -1.4126    2.8483 C.3       1 <0>         0.0000
     10 C10         6.4405   -2.1272    2.9267 C.3       1 <0>         0.0000
     11 C11         7.1342   -3.0688    0.6654 C.3       1 <0>         0.0000
     12 C12         5.9953   -2.9363    1.6910 C.3       1 <0>         0.0000
     13 C13         2.4245   -2.8999    0.3599 C.3       1 <0>         0.0000
     14 C14         5.3645   -1.9750    4.0244 C.3       1 <0>         0.0000
     15 C15         2.0646   -3.8508   -0.8201 C.3       1 <0>         0.0000
     16 N1          0.9155   -1.6421    1.7876 N.am      1 <0>         0.0000
     17 N2          3.6959   -3.2182    0.9688 N.am      1 <0>         0.0000
     18 N3          8.3392   -3.6246    1.2202 N.am      1 <0>         0.0000
     19 O1          8.4234   -5.0014    1.1494 O.3       1 <0>         0.0000
     20 O2          9.4874   -1.7414    1.9463 O.2       1 <0>         0.0000
     21 O3          4.7482   -1.1914    0.5542 O.2       1 <0>         0.0000
     22 O4          1.0981   -3.9285    2.1133 O.2       1 <0>         0.0000
     23 H1         10.1997   -3.6235    2.1473 H         1 <0>         0.0000
     24 H2          5.7423   -3.8772    5.0075 H         1 <0>         0.0000
     25 H3          4.4501   -3.9417    3.7978 H         1 <0>         0.0000
     26 H4          4.1642   -3.1925    5.3800 H         1 <0>         0.0000
     27 H5          6.7922   -1.5734    5.6261 H         1 <0>         0.0000
     28 H6          6.2016   -0.1209    4.7985 H         1 <0>         0.0000
     29 H7          5.1564   -0.9697    5.9440 H         1 <0>         0.0000
     30 H8          2.2940   -2.2998   -2.3517 H         1 <0>         0.0000
     31 H9          2.4502   -3.9477   -2.9831 H         1 <0>         0.0000
     32 H10         3.7681   -3.2311   -2.0551 H         1 <0>         0.0000
     33 H11         2.2564   -5.7011    0.3358 H         1 <0>         0.0000
     34 H12         3.7440   -5.2254   -0.4780 H         1 <0>         0.0000
     35 H13         2.4105   -5.9315   -1.4105 H         1 <0>         0.0000
     36 H14         0.0636   -4.3749   -0.1106 H         1 <0>         0.0000
     37 H15         0.3004   -4.6763   -1.8330 H         1 <0>         0.0000
     38 H16         0.0759   -3.0219   -1.2405 H         1 <0>         0.0000
     39 H17        -1.0554   -1.5084    2.4658 H         1 <0>         0.0000
     40 H18         0.0924   -0.4080    3.2604 H         1 <0>         0.0000
     41 H19         0.1090   -2.1415    3.6503 H         1 <0>         0.0000
     42 H20         7.3251   -2.6069    3.3666 H         1 <0>         0.0000
     43 H21         6.7588   -1.1249    2.6110 H         1 <0>         0.0000
     44 H22         6.8299   -3.7170   -0.1632 H         1 <0>         0.0000
     45 H23         7.4005   -2.0938    0.2440 H         1 <0>         0.0000
     46 H24         5.7385   -3.9535    2.0094 H         1 <0>         0.0000
     47 H25         2.5279   -1.8729   -0.0129 H         1 <0>         0.0000
     48 H26         4.4913   -1.4577    3.6101 H         1 <0>         0.0000
     49 H27         1.2316   -0.8537    1.2310 H         1 <0>         0.0000
     50 H28         3.8157   -4.1378    1.3829 H         1 <0>         0.0000
@<TRIPOS>BOND
     1    1   18 am
     2    1   20 2
     3    2   12 1
     4    2   17 am
     5    2   21 2
     6    3   13 1
     7    3   16 am
     8    3   22 2
     9    4   14 1
    10    5   14 1
    11    6   15 1
    12    7   15 1
    13    8   15 1
    14    9   16 1
    15   10   12 1
    16   10   14 1
    17   11   12 1
    18   11   18 1
    19   13   15 1
    20   13   17 1
    21   18   19 1
    22    1   23 1
    23    4   24 1
    24    4   25 1
    25    4   26 1
    26    5   27 1
    27    5   28 1
    28    5   29 1
    29    6   30 1
    30    6   31 1
    31    6   32 1
    32    7   33 1
    33    7   34 1
    34    7   35 1
    35    8   36 1
    36    8   37 1
    37    8   38 1
    38    9   39 1
    39    9   40 1
    40    9   41 1
    41   10   42 1
    42   10   43 1
    43   11   44 1
    44   11   45 1
    45   12   46 1
    46   13   47 1
    47   14   48 1
    48   16   49 1
    49   17   50 1
@<TRIPOS>MOLECULE
LIGAND
   50    49     0     0     0
SMALL
NO_CHARGES

@<TRIPOS>ATOM
      1 C1          6.1780   -1.1790    4.5937 C.2       1 <0>         0.0000
      2 C2          4.7609   -2.3304    1.0158 C.2       1 <0>         0.0000
      3 C3          1.6238   -2.1763    1.4428 C.2       1 <0>         0.0000
      4 C4          7.9668   -2.9805   -0.7195 C.3       1 <0>         0.0000
      5 C5          7.2752   -5.3485   -1.1277 C.3       1 <0>         0.0000
      6 C6          2.6382   -4.8237   -1.2732 C.3       1 <0>         0.0000
      7 C7          1.4139   -5.1834    0.8654 C.3       1 <0>         0.0000
      8 C8          0.3871   -3.7862   -0.9377 C.3       1 <0>         0.0000
      9 C9          0.0532   -0.2939    1.7895 C.3       1 <0>         0.0000
     10 C10         6.4903   -4.2069    0.9698 C.3       1 <0>         0.0000
     11 C11         5.6912   -3.2135    3.1734 C.3       1 <0>         0.0000
     12 C12         5.9953   -2.9363    1.6910 C.3       1 <0>         0.0000
     13 C13         2.4245   -2.8999    0.3599 C.3       1 <0>         0.0000
     14 C14         6.8518   -4.0083   -0.5189 C.3       1 <0>         0.0000
     15 C15         1.7114   -4.1488   -0.2382 C.3       1 <0>         0.0000
     16 N1          0.8675   -1.1285    0.9389 N.am      1 <0>         0.0000
     17 N2          3.6959   -3.2182    0.9688 N.am      1 <0>         0.0000
     18 N3          5.3407   -2.0316    3.9142 N.am      1 <0>         0.0000
     19 O1          3.9906   -1.7407    3.9285 O.3       1 <0>         0.0000
     20 O2          5.8430   -0.1762    5.2172 O.2       1 <0>         0.0000
     21 O3          4.7482   -1.1914    0.5542 O.2       1 <0>         0.0000
     22 O4          1.6741   -2.4892    2.6314 O.2       1 <0>         0.0000
     23 H1          7.2418   -1.4708    4.5409 H         1 <0>         0.0000
     24 H2          8.8753   -3.2848   -0.1883 H         1 <0>         0.0000
     25 H3          7.6713   -1.9951   -0.3441 H         1 <0>         0.0000
     26 H4          8.2323   -2.8793   -1.7758 H         1 <0>         0.0000
     27 H5          8.1599   -5.7527   -0.6240 H         1 <0>         0.0000
     28 H6          6.4698   -6.0859   -1.0440 H         1 <0>         0.0000
     29 H7          7.5125   -5.2358   -2.1909 H         1 <0>         0.0000
     30 H8          2.8872   -4.1345   -2.0879 H         1 <0>         0.0000
     31 H9          2.1738   -5.7124   -1.7140 H         1 <0>         0.0000
     32 H10         3.5794   -5.1449   -0.8119 H         1 <0>         0.0000
     33 H11         0.7565   -4.7621    1.6349 H         1 <0>         0.0000
     34 H12         2.3282   -5.5113    1.3711 H         1 <0>         0.0000
     35 H13         0.9158   -6.0685    0.4541 H         1 <0>         0.0000
     36 H14        -0.3050   -3.3025   -0.2384 H         1 <0>         0.0000
     37 H15        -0.1179   -4.6740   -1.3329 H         1 <0>         0.0000
     38 H16         0.5457   -3.0900   -1.7676 H         1 <0>         0.0000
     39 H17        -0.9522   -0.7139    1.8767 H         1 <0>         0.0000
     40 H18        -0.0213    0.7135    1.3710 H         1 <0>         0.0000
     41 H19         0.4945   -0.2269    2.7876 H         1 <0>         0.0000
     42 H20         7.3727   -4.5944    1.4964 H         1 <0>         0.0000
     43 H21         5.7222   -4.9884    1.0394 H         1 <0>         0.0000
     44 H22         4.8556   -3.9151    3.2682 H         1 <0>         0.0000
     45 H23         6.5563   -3.6574    3.6769 H         1 <0>         0.0000
     46 H24         6.7931   -2.1847    1.6686 H         1 <0>         0.0000
     47 H25         2.6549   -2.1876   -0.4426 H         1 <0>         0.0000
     48 H26         5.9671   -3.6628   -1.0661 H         1 <0>         0.0000
     49 H27         0.8872   -0.9429   -0.0594 H         1 <0>         0.0000
     50 H28         3.8157   -4.1378    1.3829 H         1 <0>         0.0000
@<TRIPOS>BOND
     1    1   18 am
     2    1   20 2
     3    2   12 1
     4    2   17 am
     5    2   21 2
     6    3   13 1
     7    3   16 am
     8    3   22 2
     9    4   14 1
    10    5   14 1
    11    6   15 1
    12    7   15 1
    13    8   15 1
    14    9   16 1
    15   10   12 1
    16   10   14 1
    17   11   12 1
    18   11   18 1
    19   13   15 1
    20   13   17 1
    21   18   19 1
    22    1   23 1
    23    4   24 1
    24    4   25 1
    25    4   26 1
    26    5   27 1
    27    5   28 1
    28    5   29 1
    29    6   30 1
    30    6   31 1
    31    6   32 1
    32    7   33 1
    33    7   34 1
    34    7   35 1
    35    8   36 1
    36    8   37 1
    37    8   38 1
    38    9   39 1
    39    9   40 1
    40    9   41 1
    41   10   42 1
    42   10   43 1
    43   11   44 1
    44   11   45 1
    45   12   46 1
    46   13   47 1
    47   14   48 1
    48   16   49 1
    49   17   50 1
@<TRIPOS>MOLECULE
LIGAND
   50    49     0     0     0
SMALL
NO_CHARGES

@<TRIPOS>ATOM
      1 C1          4.8014   -1.1421    4.3182 C.2       1 <0>         0.0000
      2 C2          4.7609   -2.3304    1.0158 C.2       1 <0>         0.0000
      3 C3          1.3743   -3.6105    1.2141 C.2       1 <0>         0.0000
      4 C4          8.5547   -3.1178   -0.0742 C.3       1 <0>         0.0000
      5 C5          7.6782   -5.2829   -0.9666 C.3       1 <0>         0.0000
      6 C6          3.5112   -2.5312   -1.8976 C.3       1 <0>         0.0000
      7 C7          2.5798   -4.7765   -1.3563 C.3       1 <0>         0.0000
      8 C8          1.0336   -2.8618   -1.8044 C.3       1 <0>         0.0000
      9 C9         -0.8899   -3.3247    2.1744 C.3       1 <0>         0.0000
     10 C10         6.4903   -4.2069    0.9698 C.3       1 <0>         0.0000
     11 C11         5.6912   -3.2135    3.1734 C.3       1 <0>         0.0000
     12 C12         5.9953   -2.9363    1.6910 C.3       1 <0>         0.0000
     13 C13         2.4245   -2.8999    0.3599 C.3       1 <0>         0.0000
     14 C14         7.2936   -3.9469   -0.3237 C.3       1 <0>         0.0000
     15 C15         2.3718   -3.2623   -1.1540 C.3       1 <0>         0.0000
     16 N1          0.2223   -2.8565    1.3827 N.am      1 <0>         0.0000
     17 N2          3.6959   -3.2182    0.9688 N.am      1 <0>         0.0000
     18 N3          5.7903   -2.0436    4.0042 N.am      1 <0>         0.0000
     19 O1          7.0443   -1.8225    4.5393 O.3       1 <0>         0.0000
     20 O2          4.9220   -0.1515    5.0329 O.2       1 <0>         0.0000
     21 O3          4.7482   -1.1914    0.5542 O.2       1 <0>         0.0000
     22 O4          1.5569   -4.7218    1.7089 O.2       1 <0>         0.0000
     23 H1          3.8262   -1.3791    3.8573 H         1 <0>         0.0000
     24 H2          9.2158   -3.6219    0.6392 H         1 <0>         0.0000
     25 H3          8.3079   -2.1320    0.3339 H         1 <0>         0.0000
     26 H4          9.1275   -2.9738   -0.9949 H         1 <0>         0.0000
     27 H5          8.3104   -5.8785   -0.2992 H         1 <0>         0.0000
     28 H6          6.7859   -5.8716   -1.2045 H         1 <0>         0.0000
     29 H7          8.2280   -5.1221   -1.9000 H         1 <0>         0.0000
     30 H8          3.4182   -1.4447   -1.7906 H         1 <0>         0.0000
     31 H9          3.5120   -2.7653   -2.9677 H         1 <0>         0.0000
     32 H10         4.4918   -2.8203   -1.5020 H         1 <0>         0.0000
     33 H11         1.7979   -5.3538   -0.8491 H         1 <0>         0.0000
     34 H12         3.5395   -5.1121   -0.9494 H         1 <0>         0.0000
     35 H13         2.5489   -5.0416   -2.4191 H         1 <0>         0.0000
     36 H14         0.1926   -3.3589   -1.3070 H         1 <0>         0.0000
     37 H15         0.9978   -3.1431   -2.8622 H         1 <0>         0.0000
     38 H16         0.8573   -1.7835   -1.7352 H         1 <0>         0.0000
     39 H17        -1.5882   -3.8849    1.5471 H         1 <0>         0.0000
     40 H18        -1.4189   -2.4783    2.6208 H         1 <0>         0.0000
     41 H19        -0.5348   -3.9781    2.9759 H         1 <0>         0.0000
     42 H20         7.1160   -4.7876    1.6607 H         1 <0>         0.0000
     43 H21         5.6310   -4.8442    0.7228 H         1 <0>         0.0000
     44 H22         4.6761   -3.6079    3.2888 H         1 <0>         0.0000
     45 H23         6.3842   -3.9541    3.5861 H         1 <0>         0.0000
     46 H24         6.7931   -2.1847    1.6686 H         1 <0>         0.0000
     47 H25         2.3043   -1.8161    0.4837 H         1 <0>         0.0000
     48 H26         6.6656   -3.4052   -1.0405 H         1 <0>         0.0000
     49 H27         0.1595   -1.9470    0.9352 H         1 <0>         0.0000
     50 H28         3.8157   -4.1378    1.3829 H         1 <0>         0.0000
@<TRIPOS>BOND
     1    1   18 am
     2    1   20 2
     3    2   12 1
     4    2   17 am
     5    2   21 2
     6    3   13 1
     7    3   16 am
     8    3   22 2
     9    4   14 1
    10    5   14 1
    11    6   15 1
    12    7   15 1
    13    8   15 1
    14    9   16 1
    15   10   12 1
    16   10   14 1
    17   11   12 1
    18   11   18 1
    19   13   15 1
    20   13   17 1
    21   18   19 1
    22    1   23 1
    23    4   24 1
    24    4   25 1
    25    4   26 1
    26    5   27 1
    27    5   28 1
    28    5   29 1
    29    6   30 1
    30    6   31 1
    31    6   32 1
    32    7   33 1
    33    7   34 1
    34    7   35 1
    35    8   36 1
    36    8   37 1
    37    8   38 1
    38    9   39 1
    39    9   40 1
    40    9   41 1
    41   10   42 1
    42   10   43 1
    43   11   44 1
    44   11   45 1
    45   12   46 1
    46   13   47 1
    47   14   48 1
    48   16   49 1
    49   17   50 1
@<TRIPOS>MOLECULE
LIGAND
   50    49     0     0     0
SMALL
NO_CHARGES

@<TRIPOS>ATOM
      1 C1          8.9310   -2.5277    0.0294 C.2       1 <0>         0.0000
      2 C2          4.7609   -2.3304    1.0158 C.2       1 <0>         0.0000
      3 C3          1.4114   -2.9063    1.5049 C.2       1 <0>         0.0000
      4 C4          5.5916   -1.8934    4.5978 C.3       1 <0>         0.0000
      5 C5          7.0929    0.0222    4.0244 C.3       1 <0>         0.0000
      6 C6          3.1857   -3.8003   -1.8813 C.3       1 <0>         0.0000
      7 C7          1.9543   -5.3076   -0.3278 C.3       1 <0>         0.0000
      8 C8          0.7370   -3.4626   -1.4991 C.3       1 <0>         0.0000
      9 C9          1.0123   -1.9958    3.7725 C.3       1 <0>         0.0000
     10 C10         6.8665   -1.8668    2.3816 C.3       1 <0>         0.0000
     11 C11         6.8055   -3.7427    0.6616 C.3       1 <0>         0.0000
     12 C12         5.9953   -2.9363    1.6910 C.3       1 <0>         0.0000
     13 C13         2.4245   -2.8999    0.3599 C.3       1 <0>         0.0000
     14 C14         6.1374   -1.0321    3.4575 C.3       1 <0>         0.0000
     15 C15         2.0646   -3.8508   -0.8201 C.3       1 <0>         0.0000
     16 N1          1.8071   -2.1159    2.5738 N.am      1 <0>         0.0000
     17 N2          3.6959   -3.2182    0.9688 N.am      1 <0>         0.0000
     18 N3          7.6315   -2.9222   -0.1830 N.am      1 <0>         0.0000
     19 O1          7.0188   -2.4912   -1.3434 O.3       1 <0>         0.0000
     20 O2          9.6275   -2.8139    0.9986 O.2       1 <0>         0.0000
     21 O3          4.7482   -1.1914    0.5542 O.2       1 <0>         0.0000
     22 O4          0.3728   -3.5647    1.4736 O.2       1 <0>         0.0000
     23 H1          9.3375   -1.8953   -0.7795 H         1 <0>         0.0000
     24 H2          6.4006   -2.4456    5.0885 H         1 <0>         0.0000
     25 H3          4.8609   -2.6219    4.2310 H         1 <0>         0.0000
     26 H4          5.1097   -1.2817    5.3659 H         1 <0>         0.0000
     27 H5          7.9623   -0.4436    4.5008 H         1 <0>         0.0000
     28 H6          7.4545    0.6861    3.2321 H         1 <0>         0.0000
     29 H7          6.5886    0.6429    4.7727 H         1 <0>         0.0000
     30 H8          3.3133   -2.7845   -2.2720 H         1 <0>         0.0000
     31 H9          2.9723   -4.4622   -2.7277 H         1 <0>         0.0000
     32 H10         4.1465   -4.1154   -1.4578 H         1 <0>         0.0000
     33 H11         1.1705   -5.4095    0.4319 H         1 <0>         0.0000
     34 H12         2.8879   -5.6535    0.1281 H         1 <0>         0.0000
     35 H13         1.7055   -5.9859   -1.1517 H         1 <0>         0.0000
     36 H14        -0.0909   -3.4848   -0.7807 H         1 <0>         0.0000
     37 H15         0.4812   -4.1517   -2.3109 H         1 <0>         0.0000
     38 H16         0.7762   -2.4505   -1.9146 H         1 <0>         0.0000
     39 H17         0.3100   -1.1637    3.6759 H         1 <0>         0.0000
     40 H18         1.6568   -1.8137    4.6368 H         1 <0>         0.0000
     41 H19         0.4467   -2.9155    3.9448 H         1 <0>         0.0000
     42 H20         7.7322   -2.3581    2.8457 H         1 <0>         0.0000
     43 H21         7.2705   -1.1813    1.6250 H         1 <0>         0.0000
     44 H22         7.4659   -4.4552    1.1672 H         1 <0>         0.0000
     45 H23         6.1454   -4.3134    0.0001 H         1 <0>         0.0000
     46 H24         5.6479   -3.6501    2.4472 H         1 <0>         0.0000
     47 H25         2.5279   -1.8729   -0.0129 H         1 <0>         0.0000
     48 H26         5.2955   -0.5008    2.9986 H         1 <0>         0.0000
     49 H27         2.6832   -1.6060    2.5111 H         1 <0>         0.0000
     50 H28         3.8157   -4.1378    1.3829 H         1 <0>         0.0000
@<TRIPOS>BOND
     1    1   18 am
     2    1   20 2
     3    2   12 1
     4    2   17 am
     5    2   21 2
     6    3   13 1
     7    3   16 am
     8    3   22 2
     9    4   14 1
    10    5   14 1
    11    6   15 1
    12    7   15 1
    13    8   15 1
    14    9   16 1
    15   10   12 1
    16   10   14 1
    17   11   12 1
    18   11   18 1
    19   13   15 1
    20   13   17 1
    21   18   19 1
    22    1   23 1
    23    4   24 1
    24    4   25 1
    25    4   26 1
    26    5   27 1
    27    5   28 1
    28    5   29 1
    29    6   30 1
    30    6   31 1
    31    6   32 1
    32    7   33 1
    33    7   34 1
    34    7   35 1
    35    8   36 1
    36    8   37 1
    37    8   38 1
    38    9   39 1
    39    9   40 1
    40    9   41 1
    41   10   42 1
    42   10   43 1
    43   11   44 1
    44   11   45 1
    45   12   46 1
    46   13   47 1
    47   14   48 1
    48   16   49 1
    49   17   50 1
@<TRIPOS>MOLECULE
LIGAND
   50    49     0     0     0
SMALL
NO_CHARGES

@<TRIPOS>ATOM
      1 C1          6.2227   -3.5568   -1.6421 C.2       1 <0>         0.0000
      2 C2          4.7609   -2.3304    1.0158 C.2       1 <0>         0.0000
      3 C3          1.9548   -1.6162    1.0446 C.2       1 <0>         0.0000
      4 C4          4.8998   -3.3220    4.5808 C.3       1 <0>         0.0000
      5 C5          5.9126   -1.1117    5.1647 C.3       1 <0>         0.0000
      6 C6          2.0155   -5.3270   -0.2360 C.3       1 <0>         0.0000
      7 C7          1.1035   -4.4371    1.9036 C.3       1 <0>         0.0000
      8 C8          0.0778   -3.7458   -0.2707 C.3       1 <0>         0.0000
      9 C9          1.5766    0.7964    0.6361 C.3       1 <0>         0.0000
     10 C10         6.4405   -2.1272    2.9267 C.3       1 <0>         0.0000
     11 C11         7.1342   -3.0688    0.6654 C.3       1 <0>         0.0000
     12 C12         5.9953   -2.9363    1.6910 C.3       1 <0>         0.0000
     13 C13         2.4245   -2.8999    0.3599 C.3       1 <0>         0.0000
     14 C14         5.3645   -1.9750    4.0244 C.3       1 <0>         0.0000
     15 C15         1.4067   -4.0765    0.4357 C.3       1 <0>         0.0000
     16 N1          1.9600   -0.5222    0.1919 N.am      1 <0>         0.0000
     17 N2          3.6959   -3.2182    0.9688 N.am      1 <0>         0.0000
     18 N3          6.8025   -3.9159   -0.4486 N.am      1 <0>         0.0000
     19 O1          7.1154   -5.2494   -0.2706 O.3       1 <0>         0.0000
     20 O2          5.8799   -2.4252   -1.9714 O.2       1 <0>         0.0000
     21 O3          4.7482   -1.1914    0.5542 O.2       1 <0>         0.0000
     22 O4          1.6317   -1.5721    2.2307 O.2       1 <0>         0.0000
     23 H1          6.0743   -4.4054   -2.3331 H         1 <0>         0.0000
     24 H2          5.7423   -3.8772    5.0075 H         1 <0>         0.0000
     25 H3          4.4501   -3.9417    3.7978 H         1 <0>         0.0000
     26 H4          4.1642   -3.1925    5.3800 H         1 <0>         0.0000
     27 H5          6.7922   -1.5734    5.6261 H         1 <0>         0.0000
     28 H6          6.2016   -0.1209    4.7985 H         1 <0>         0.0000
     29 H7          5.1564   -0.9697    5.9440 H         1 <0>         0.0000
     30 H8          2.2541   -5.1329   -1.2877 H         1 <0>         0.0000
     31 H9          1.3305   -6.1810   -0.1982 H         1 <0>         0.0000
     32 H10         2.9425   -5.6329    0.2628 H         1 <0>         0.0000
     33 H11         0.6668   -3.5850    2.4375 H         1 <0>         0.0000
     34 H12         2.0104   -4.7234    2.4466 H         1 <0>         0.0000
     35 H13         0.3913   -5.2673    1.9681 H         1 <0>         0.0000
     36 H14        -0.3923   -2.8611    0.1746 H         1 <0>         0.0000
     37 H15        -0.6390   -4.5698   -0.1902 H         1 <0>         0.0000
     38 H16         0.2276   -3.5306   -1.3336 H         1 <0>         0.0000
     39 H17         0.5028    0.9433    0.4938 H         1 <0>         0.0000
     40 H18         2.1146    1.5586    0.0660 H         1 <0>         0.0000
     41 H19         1.8113    0.9211    1.6966 H         1 <0>         0.0000
     42 H20         7.3251   -2.6069    3.3666 H         1 <0>         0.0000
     43 H21         6.7588   -1.1249    2.6110 H         1 <0>         0.0000
     44 H22         7.3992   -2.0872    0.2584 H         1 <0>         0.0000
     45 H23         8.0331   -3.4907    1.1269 H         1 <0>         0.0000
     46 H24         5.7385   -3.9535    2.0094 H         1 <0>         0.0000
     47 H25         2.6512   -2.6760   -0.6903 H         1 <0>         0.0000
     48 H26         4.4913   -1.4577    3.6101 H         1 <0>         0.0000
     49 H27         2.2424   -0.6531   -0.7748 H         1 <0>         0.0000
     50 H28         3.8157   -4.1378    1.3829 H         1 <0>         0.0000
@<TRIPOS>BOND
     1    1   18 am
     2    1   20 2
     3    2   12 1
     4    2   17 am
     5    2   21 2
     6    3   13 1
     7    3   16 am
     8    3   22 2
     9    4   14 1
    10    5   14 1
    11    6   15 1
    12    7   15 1
    13    8   15 1
    14    9   16 1
    15   10   12 1
    16   10   14 1
    17   11   12 1
    18   11   18 1
    19   13   15 1
    20   13   17 1
    21   18   19 1
    22    1   23 1
    23    4   24 1
    24    4   25 1
    25    4   26 1
    26    5   27 1
    27    5   28 1
    28    5   29 1
    29    6   30 1
    30    6   31 1
    31    6   32 1
    32    7   33 1
    33    7   34 1
    34    7   35 1
    35    8   36 1
    36    8   37 1
    37    8   38 1
    38    9   39 1
    39    9   40 1
    40    9   41 1
    41   10   42 1
    42   10   43 1
    43   11   44 1
    44   11   45 1
    45   12   46 1
    46   13   47 1
    47   14   48 1
    48   16   49 1
    49   17   50 1
@<TRIPOS>MOLECULE
LIGAND
   50    49     0     0     0
SMALL
NO_CHARGES

@<TRIPOS>ATOM
      1 C1          8.7053   -4.9474    1.2944 C.2       1 <0>         0.0000
      2 C2          4.7609   -2.3304    1.0158 C.2       1 <0>         0.0000
      3 C3          1.6238   -2.1763    1.4428 C.2       1 <0>         0.0000
      4 C4          4.8998   -3.3220    4.5808 C.3       1 <0>         0.0000
      5 C5          5.9126   -1.1117    5.1647 C.3       1 <0>         0.0000
      6 C6          2.6382   -4.8237   -1.2732 C.3       1 <0>         0.0000
      7 C7          1.4139   -5.1834    0.8654 C.3       1 <0>         0.0000
      8 C8          0.3871   -3.7862   -0.9377 C.3       1 <0>         0.0000
      9 C9          0.0532   -0.2939    1.7895 C.3       1 <0>         0.0000
     10 C10         6.4405   -2.1272    2.9267 C.3       1 <0>         0.0000
     11 C11         7.1342   -3.0688    0.6654 C.3       1 <0>         0.0000
     12 C12         5.9953   -2.9363    1.6910 C.3       1 <0>         0.0000
     13 C13         2.4245   -2.8999    0.3599 C.3       1 <0>         0.0000
     14 C14         5.3645   -1.9750    4.0244 C.3       1 <0>         0.0000
     15 C15         1.7114   -4.1488   -0.2382 C.3       1 <0>         0.0000
     16 N1          0.8675   -1.1285    0.9389 N.am      1 <0>         0.0000
     17 N2          3.6959   -3.2182    0.9688 N.am      1 <0>         0.0000
     18 N3          8.3392   -3.6246    1.2202 N.am      1 <0>         0.0000
     19 O1          9.2189   -2.6926    1.7349 O.3       1 <0>         0.0000
     20 O2          9.7450   -5.3872    1.7763 O.2       1 <0>         0.0000
     21 O3          4.7482   -1.1914    0.5542 O.2       1 <0>         0.0000
     22 O4          1.6741   -2.4892    2.6314 O.2       1 <0>         0.0000
     23 H1          7.9568   -5.6368    0.8652 H         1 <0>         0.0000
     24 H2          5.7423   -3.8772    5.0075 H         1 <0>         0.0000
     25 H3          4.4501   -3.9417    3.7978 H         1 <0>         0.0000
     26 H4          4.1642   -3.1925    5.3800 H         1 <0>         0.0000
     27 H5          6.7922   -1.5734    5.6261 H         1 <0>         0.0000
     28 H6          6.2016   -0.1209    4.7985 H         1 <0>         0.0000
     29 H7          5.1564   -0.9697    5.9440 H         1 <0>         0.0000
     30 H8          2.8872   -4.1345   -2.0879 H         1 <0>         0.0000
     31 H9          2.1738   -5.7124   -1.7140 H         1 <0>         0.0000
     32 H10         3.5794   -5.1449   -0.8119 H         1 <0>         0.0000
     33 H11         0.7565   -4.7621    1.6349 H         1 <0>         0.0000
     34 H12         2.3282   -5.5113    1.3711 H         1 <0>         0.0000
     35 H13         0.9158   -6.0685    0.4541 H         1 <0>         0.0000
     36 H14        -0.3050   -3.3025   -0.2384 H         1 <0>         0.0000
     37 H15        -0.1179   -4.6740   -1.3329 H         1 <0>         0.0000
     38 H16         0.5457   -3.0900   -1.7676 H         1 <0>         0.0000
     39 H17        -0.9522   -0.7139    1.8767 H         1 <0>         0.0000
     40 H18        -0.0213    0.7135    1.3710 H         1 <0>         0.0000
     41 H19         0.4945   -0.2269    2.7876 H         1 <0>         0.0000
     42 H20         7.3251   -2.6069    3.3666 H         1 <0>         0.0000
     43 H21         6.7588   -1.1249    2.6110 H         1 <0>         0.0000
     44 H22         6.8299   -3.7170   -0.1632 H         1 <0>         0.0000
     45 H23         7.4005   -2.0938    0.2440 H         1 <0>         0.0000
     46 H24         5.7385   -3.9535    2.0094 H         1 <0>         0.0000
     47 H25         2.6549   -2.1876   -0.4426 H         1 <0>         0.0000
     48 H26         4.4913   -1.4577    3.6101 H         1 <0>         0.0000
     49 H27         0.8872   -0.9429   -0.0594 H         1 <0>         0.0000
     50 H28         3.8157   -4.1378    1.3829 H         1 <0>         0.0000
@<TRIPOS>BOND
     1    1   18 am
     2    1   20 2
     3    2   12 1
     4    2   17 am
     5    2   21 2
     6    3   13 1
     7    3   16 am
     8    3   22 2
     9    4   14 1
    10    5   14 1
    11    6   15 1
    12    7   15 1
    13    8   15 1
    14    9   16 1
    15   10   12 1
    16   10   14 1
    17   11   12 1
    18   11   18 1
    19   13   15 1
    20   13   17 1
    21   18   19 1
    22    1   23 1
    23    4   24 1
    24    4   25 1
    25    4   26 1
    26    5   27 1
    27    5   28 1
    28    5   29 1
    29    6   30 1
    30    6   31 1
    31    6   32 1
    32    7   33 1
    33    7   34 1
    34    7   35 1
    35    8   36 1
    36    8   37 1
    37    8   38 1
    38    9   39 1
    39    9   40 1
    40    9   41 1
    41   10   42 1
    42   10   43 1
    43   11   44 1
    44   11   45 1
    45   12   46 1
    46   13   47 1
    47   14   48 1
    48   16   49 1
    49   17   50 1
@<TRIPOS>MOLECULE
LIGAND
   50    49     0     0     0
SMALL
NO_CHARGES

@<TRIPOS>ATOM
      1 C1          6.0958   -6.0780    1.3219 C.2       1 <0>         0.0000
      2 C2          4.7609   -2.3304    1.0158 C.2       1 <0>         0.0000
      3 C3          1.3743   -3.6105    1.2141 C.2       1 <0>         0.0000
      4 C4          5.5916   -1.8934    4.5978 C.3       1 <0>         0.0000
      5 C5          7.0929    0.0222    4.0244 C.3       1 <0>         0.0000
      6 C6          3.5112   -2.5312   -1.8976 C.3       1 <0>         0.0000
      7 C7          2.5798   -4.7765   -1.3563 C.3       1 <0>         0.0000
      8 C8          1.0336   -2.8618   -1.8044 C.3       1 <0>         0.0000
      9 C9         -0.8899   -3.3247    2.1744 C.3       1 <0>         0.0000
     10 C10         6.8665   -1.8668    2.3816 C.3       1 <0>         0.0000
     11 C11         6.8055   -3.7427    0.6616 C.3       1 <0>         0.0000
     12 C12         5.9953   -2.9363    1.6910 C.3       1 <0>         0.0000
     13 C13         2.4245   -2.8999    0.3599 C.3       1 <0>         0.0000
     14 C14         6.1374   -1.0321    3.4575 C.3       1 <0>         0.0000
     15 C15         2.3718   -3.2623   -1.1540 C.3       1 <0>         0.0000
     16 N1          0.2223   -2.8565    1.3827 N.am      1 <0>         0.0000
     17 N2          3.6959   -3.2182    0.9688 N.am      1 <0>         0.0000
     18 N3          6.2725   -5.0565    0.4193 N.am      1 <0>         0.0000
     19 O1          5.9007   -5.2942   -0.8894 O.3       1 <0>         0.0000
     20 O2          6.3684   -6.0453    2.5182 O.2       1 <0>         0.0000
     21 O3          4.7482   -1.1914    0.5542 O.2       1 <0>         0.0000
     22 O4          1.5569   -4.7218    1.7089 O.2       1 <0>         0.0000
     23 H1          5.6645   -6.9913    0.8751 H         1 <0>         0.0000
     24 H2          6.4006   -2.4456    5.0885 H         1 <0>         0.0000
     25 H3          4.8609   -2.6219    4.2310 H         1 <0>         0.0000
     26 H4          5.1097   -1.2817    5.3659 H         1 <0>         0.0000
     27 H5          7.9623   -0.4436    4.5008 H         1 <0>         0.0000
     28 H6          7.4545    0.6861    3.2321 H         1 <0>         0.0000
     29 H7          6.5886    0.6429    4.7727 H         1 <0>         0.0000
     30 H8          3.4182   -1.4447   -1.7906 H         1 <0>         0.0000
     31 H9          3.5120   -2.7653   -2.9677 H         1 <0>         0.0000
     32 H10         4.4918   -2.8203   -1.5020 H         1 <0>         0.0000
     33 H11         1.7979   -5.3538   -0.8491 H         1 <0>         0.0000
     34 H12         3.5395   -5.1121   -0.9494 H         1 <0>         0.0000
     35 H13         2.5489   -5.0416   -2.4191 H         1 <0>         0.0000
     36 H14         0.1926   -3.3589   -1.3070 H         1 <0>         0.0000
     37 H15         0.9978   -3.1431   -2.8622 H         1 <0>         0.0000
     38 H16         0.8573   -1.7835   -1.7352 H         1 <0>         0.0000
     39 H17        -1.5882   -3.8849    1.5471 H         1 <0>         0.0000
     40 H18        -1.4189   -2.4783    2.6208 H         1 <0>         0.0000
     41 H19        -0.5348   -3.9781    2.9759 H         1 <0>         0.0000
     42 H20         7.7322   -2.3581    2.8457 H         1 <0>         0.0000
     43 H21         7.2705   -1.1813    1.6250 H         1 <0>         0.0000
     44 H22         6.8299   -3.2204   -0.3007 H         1 <0>         0.0000
     45 H23         7.8405   -3.8774    0.9927 H         1 <0>         0.0000
     46 H24         5.6479   -3.6501    2.4472 H         1 <0>         0.0000
     47 H25         2.3043   -1.8161    0.4837 H         1 <0>         0.0000
     48 H26         5.2955   -0.5008    2.9986 H         1 <0>         0.0000
     49 H27         0.1595   -1.9470    0.9352 H         1 <0>         0.0000
     50 H28         3.8157   -4.1378    1.3829 H         1 <0>         0.0000
@<TRIPOS>BOND
     1    1   18 am
     2    1   20 2
     3    2   12 1
     4    2   17 am
     5    2   21 2
     6    3   13 1
     7    3   16 am
     8    3   22 2
     9    4   14 1
    10    5   14 1
    11    6   15 1
    12    7   15 1
    13    8   15 1
    14    9   16 1
    15   10   12 1
    16   10   14 1
    17   11   12 1
    18   11   18 1
    19   13   15 1
    20   13   17 1
    21   18   19 1
    22    1   23 1
    23    4   24 1
    24    4   25 1
    25    4   26 1
    26    5   27 1
    27    5   28 1
    28    5   29 1
    29    6   30 1
    30    6   31 1
    31    6   32 1
    32    7   33 1
    33    7   34 1
    34    7   35 1
    35    8   36 1
    36    8   37 1
    37    8   38 1
    38    9   39 1
    39    9   40 1
    40    9   41 1
    41   10   42 1
    42   10   43 1
    43   11   44 1
    44   11   45 1
    45   12   46 1
    46   13   47 1
    47   14   48 1
    48   16   49 1
    49   17   50 1
@<TRIPOS>MOLECULE
LIGAND
   50    49     0     0     0
SMALL
NO_CHARGES

@<TRIPOS>ATOM
      1 C1          8.0812   -5.2529    2.2381 C.2       1 <0>         0.0000
      2 C2          4.7609   -2.3304    1.0158 C.2       1 <0>         0.0000
      3 C3          1.4114   -2.9063    1.5049 C.2       1 <0>         0.0000
      4 C4          5.5916   -1.8934    4.5978 C.3       1 <0>         0.0000
      5 C5          7.0929    0.0222    4.0244 C.3       1 <0>         0.0000
      6 C6          3.1857   -3.8003   -1.8813 C.3       1 <0>         0.0000
      7 C7          1.9543   -5.3076   -0.3278 C.3       1 <0>         0.0000
      8 C8          0.7370   -3.4626   -1.4991 C.3       1 <0>         0.0000
      9 C9          0.5462   -1.5170    3.3628 C.3       1 <0>         0.0000
     10 C10         6.8665   -1.8668    2.3816 C.3       1 <0>         0.0000
     11 C11         6.8055   -3.7427    0.6616 C.3       1 <0>         0.0000
     12 C12         5.9953   -2.9363    1.6910 C.3       1 <0>         0.0000
     13 C13         2.4245   -2.8999    0.3599 C.3       1 <0>         0.0000
     14 C14         6.1374   -1.0321    3.4575 C.3       1 <0>         0.0000
     15 C15         2.0646   -3.8508   -0.8201 C.3       1 <0>         0.0000
     16 N1          1.4084   -1.7198    2.2232 N.am      1 <0>         0.0000
     17 N2          3.6959   -3.2182    0.9688 N.am      1 <0>         0.0000
     18 N3          7.9912   -4.3422    1.2125 N.am      1 <0>         0.0000
     19 O1          9.1704   -3.9351    0.6197 O.3       1 <0>         0.0000
     20 O2          7.1439   -5.7230    2.8761 O.2       1 <0>         0.0000
     21 O3          4.7482   -1.1914    0.5542 O.2       1 <0>         0.0000
     22 O4          0.6993   -3.8762    1.7607 O.2       1 <0>         0.0000
     23 H1          9.1177   -5.5563    2.4686 H         1 <0>         0.0000
     24 H2          6.4006   -2.4456    5.0885 H         1 <0>         0.0000
     25 H3          4.8609   -2.6219    4.2310 H         1 <0>         0.0000
     26 H4          5.1097   -1.2817    5.3659 H         1 <0>         0.0000
     27 H5          7.9623   -0.4436    4.5008 H         1 <0>         0.0000
     28 H6          7.4545    0.6861    3.2321 H         1 <0>         0.0000
     29 H7          6.5886    0.6429    4.7727 H         1 <0>         0.0000
     30 H8          3.3133   -2.7845   -2.2720 H         1 <0>         0.0000
     31 H9          2.9723   -4.4622   -2.7277 H         1 <0>         0.0000
     32 H10         4.1465   -4.1154   -1.4578 H         1 <0>         0.0000
     33 H11         1.1705   -5.4095    0.4319 H         1 <0>         0.0000
     34 H12         2.8879   -5.6535    0.1281 H         1 <0>         0.0000
     35 H13         1.7055   -5.9859   -1.1517 H         1 <0>         0.0000
     36 H14        -0.0909   -3.4848   -0.7807 H         1 <0>         0.0000
     37 H15         0.4812   -4.1517   -2.3109 H         1 <0>         0.0000
     38 H16         0.7762   -2.4505   -1.9146 H         1 <0>         0.0000
     39 H17        -0.4080   -1.0916    3.0410 H         1 <0>         0.0000
     40 H18         1.0149   -0.8317    4.0742 H         1 <0>         0.0000
     41 H19         0.3553   -2.4685    3.8664 H         1 <0>         0.0000
     42 H20         7.7322   -2.3581    2.8457 H         1 <0>         0.0000
     43 H21         7.2705   -1.1813    1.6250 H         1 <0>         0.0000
     44 H22         6.1970   -4.5521    0.2444 H         1 <0>         0.0000
     45 H23         7.1292   -3.1080   -0.1699 H         1 <0>         0.0000
     46 H24         5.6479   -3.6501    2.4472 H         1 <0>         0.0000
     47 H25         2.5279   -1.8729   -0.0129 H         1 <0>         0.0000
     48 H26         5.2955   -0.5008    2.9986 H         1 <0>         0.0000
     49 H27         2.0322   -0.9706    1.9386 H         1 <0>         0.0000
     50 H28         3.8157   -4.1378    1.3829 H         1 <0>         0.0000
@<TRIPOS>BOND
     1    1   18 am
     2    1   20 2
     3    2   12 1
     4    2   17 am
     5    2   21 2
     6    3   13 1
     7    3   16 am
     8    3   22 2
     9    4   14 1
    10    5   14 1
    11    6   15 1
    12    7   15 1
    13    8   15 1
    14    9   16 1
    15   10   12 1
    16   10   14 1
    17   11   12 1
    18   11   18 1
    19   13   15 1
    20   13   17 1
    21   18   19 1
    22    1   23 1
    23    4   24 1
    24    4   25 1
    25    4   26 1
    26    5   27 1
    27    5   28 1
    28    5   29 1
    29    6   30 1
    30    6   31 1
    31    6   32 1
    32    7   33 1
    33    7   34 1
    34    7   35 1
    35    8   36 1
    36    8   37 1
    37    8   38 1
    38    9   39 1
    39    9   40 1
    40    9   41 1
    41   10   42 1
    42   10   43 1
    43   11   44 1
    44   11   45 1
    45   12   46 1
    46   13   47 1
    47   14   48 1
    48   16   49 1
    49   17   50 1
@<TRIPOS>MOLECULE
LIGAND
   50    49     0     0     0
SMALL
NO_CHARGES

@<TRIPOS>ATOM
      1 C1          7.4208   -1.8944   -1.4646 C.2       1 <0>         0.0000
      2 C2          4.7609   -2.3304    1.0158 C.2       1 <0>         0.0000
      3 C3          1.4114   -2.9063    1.5049 C.2       1 <0>         0.0000
      4 C4          5.4286   -5.0551    3.9022 C.3       1 <0>         0.0000
      5 C5          5.1681   -3.1669    5.5205 C.3       1 <0>         0.0000
      6 C6          3.1857   -3.8003   -1.8813 C.3       1 <0>         0.0000
      7 C7          1.9543   -5.3076   -0.3278 C.3       1 <0>         0.0000
      8 C8          0.7370   -3.4626   -1.4991 C.3       1 <0>         0.0000
      9 C9          1.0123   -1.9958    3.7725 C.3       1 <0>         0.0000
     10 C10         6.0212   -2.6662    3.2096 C.3       1 <0>         0.0000
     11 C11         7.2695   -2.4142    1.0053 C.3       1 <0>         0.0000
     12 C12         5.9953   -2.9363    1.6910 C.3       1 <0>         0.0000
     13 C13         2.4245   -2.8999    0.3599 C.3       1 <0>         0.0000
     14 C14         5.0884   -3.5706    4.0452 C.3       1 <0>         0.0000
     15 C15         2.0646   -3.8508   -0.8201 C.3       1 <0>         0.0000
     16 N1          1.8071   -2.1159    2.5738 N.am      1 <0>         0.0000
     17 N2          3.6959   -3.2182    0.9688 N.am      1 <0>         0.0000
     18 N3          7.3436   -2.7497   -0.3914 N.am      1 <0>         0.0000
     19 O1          7.3340   -4.1047   -0.6590 O.3       1 <0>         0.0000
     20 O2          7.4404   -0.6681   -1.4159 O.2       1 <0>         0.0000
     21 O3          4.7482   -1.1914    0.5542 O.2       1 <0>         0.0000
     22 O4          0.3728   -3.5647    1.4736 O.2       1 <0>         0.0000
     23 H1          7.4673   -2.4124   -2.4388 H         1 <0>         0.0000
     24 H2          6.4596   -5.2491    4.2175 H         1 <0>         0.0000
     25 H3          5.3256   -5.3883    2.8641 H         1 <0>         0.0000
     26 H4          4.7804   -5.6761    4.5273 H         1 <0>         0.0000
     27 H5          6.1838   -3.2884    5.9121 H         1 <0>         0.0000
     28 H6          4.8754   -2.1200    5.6540 H         1 <0>         0.0000
     29 H7          4.4947   -3.7797    6.1290 H         1 <0>         0.0000
     30 H8          3.3133   -2.7845   -2.2720 H         1 <0>         0.0000
     31 H9          2.9723   -4.4622   -2.7277 H         1 <0>         0.0000
     32 H10         4.1465   -4.1154   -1.4578 H         1 <0>         0.0000
     33 H11         1.1705   -5.4095    0.4319 H         1 <0>         0.0000
     34 H12         2.8879   -5.6535    0.1281 H         1 <0>         0.0000
     35 H13         1.7055   -5.9859   -1.1517 H         1 <0>         0.0000
     36 H14        -0.0909   -3.4848   -0.7807 H         1 <0>         0.0000
     37 H15         0.4812   -4.1517   -2.3109 H         1 <0>         0.0000
     38 H16         0.7762   -2.4505   -1.9146 H         1 <0>         0.0000
     39 H17         0.3100   -1.1637    3.6759 H         1 <0>         0.0000
     40 H18         1.6568   -1.8137    4.6368 H         1 <0>         0.0000
     41 H19         0.4467   -2.9155    3.9448 H         1 <0>         0.0000
     42 H20         7.0493   -2.7891    3.5757 H         1 <0>         0.0000
     43 H21         5.7503   -1.6191    3.3985 H         1 <0>         0.0000
     44 H22         7.3249   -1.3230    1.0798 H         1 <0>         0.0000
     45 H23         8.1679   -2.8255    1.4773 H         1 <0>         0.0000
     46 H24         5.9704   -4.0198    1.5260 H         1 <0>         0.0000
     47 H25         2.5279   -1.8729   -0.0129 H         1 <0>         0.0000
     48 H26         4.0519   -3.4254    3.7195 H         1 <0>         0.0000
     49 H27         2.6832   -1.6060    2.5111 H         1 <0>         0.0000
     50 H28         3.8157   -4.1378    1.3829 H         1 <0>         0.0000
@<TRIPOS>BOND
     1    1   18 am
     2    1   20 2
     3    2   12 1
     4    2   17 am
     5    2   21 2
     6    3   13 1
     7    3   16 am
     8    3   22 2
     9    4   14 1
    10    5   14 1
    11    6   15 1
    12    7   15 1
    13    8   15 1
    14    9   16 1
    15   10   12 1
    16   10   14 1
    17   11   12 1
    18   11   18 1
    19   13   15 1
    20   13   17 1
    21   18   19 1
    22    1   23 1
    23    4   24 1
    24    4   25 1
    25    4   26 1
    26    5   27 1
    27    5   28 1
    28    5   29 1
    29    6   30 1
    30    6   31 1
    31    6   32 1
    32    7   33 1
    33    7   34 1
    34    7   35 1
    35    8   36 1
    36    8   37 1
    37    8   38 1
    38    9   39 1
    39    9   40 1
    40    9   41 1
    41   10   42 1
    42   10   43 1
    43   11   44 1
    44   11   45 1
    45   12   46 1
    46   13   47 1
    47   14   48 1
    48   16   49 1
    49   17   50 1
@<TRIPOS>MOLECULE
LIGAND
   50    49     0     0     0
SMALL
NO_CHARGES

@<TRIPOS>ATOM
      1 C1          6.7648   -3.5849   -1.7822 C.2       1 <0>         0.0000
      2 C2          4.7609   -2.3304    1.0158 C.2       1 <0>         0.0000
      3 C3          1.4114   -2.9063    1.5049 C.2       1 <0>         0.0000
      4 C4          4.8998   -3.3220    4.5808 C.3       1 <0>         0.0000
      5 C5          5.9126   -1.1117    5.1647 C.3       1 <0>         0.0000
      6 C6          3.1857   -3.8003   -1.8813 C.3       1 <0>         0.0000
      7 C7          1.9543   -5.3076   -0.3278 C.3       1 <0>         0.0000
      8 C8          0.7370   -3.4626   -1.4991 C.3       1 <0>         0.0000
      9 C9          1.0123   -1.9958    3.7725 C.3       1 <0>         0.0000
     10 C10         6.4405   -2.1272    2.9267 C.3       1 <0>         0.0000
     11 C11         7.1342   -3.0688    0.6654 C.3       1 <0>         0.0000
     12 C12         5.9953   -2.9363    1.6910 C.3       1 <0>         0.0000
     13 C13         2.4245   -2.8999    0.3599 C.3       1 <0>         0.0000
     14 C14         5.3645   -1.9750    4.0244 C.3       1 <0>         0.0000
     15 C15         2.0646   -3.8508   -0.8201 C.3       1 <0>         0.0000
     16 N1          1.8071   -2.1159    2.5738 N.am      1 <0>         0.0000
     17 N2          3.6959   -3.2182    0.9688 N.am      1 <0>         0.0000
     18 N3          6.8025   -3.9159   -0.4486 N.am      1 <0>         0.0000
     19 O1          6.4869   -5.2168   -0.1083 O.3       1 <0>         0.0000
     20 O2          7.0133   -2.4838   -2.2643 O.2       1 <0>         0.0000
     21 O3          4.7482   -1.1914    0.5542 O.2       1 <0>         0.0000
     22 O4          0.3728   -3.5647    1.4736 O.2       1 <0>         0.0000
     23 H1          6.4781   -4.4264   -2.4374 H         1 <0>         0.0000
     24 H2          5.7423   -3.8772    5.0075 H         1 <0>         0.0000
     25 H3          4.4501   -3.9417    3.7978 H         1 <0>         0.0000
     26 H4          4.1642   -3.1925    5.3800 H         1 <0>         0.0000
     27 H5          6.7922   -1.5734    5.6261 H         1 <0>         0.0000
     28 H6          6.2016   -0.1209    4.7985 H         1 <0>         0.0000
     29 H7          5.1564   -0.9697    5.9440 H         1 <0>         0.0000
     30 H8          3.3133   -2.7845   -2.2720 H         1 <0>         0.0000
     31 H9          2.9723   -4.4622   -2.7277 H         1 <0>         0.0000
     32 H10         4.1465   -4.1154   -1.4578 H         1 <0>         0.0000
     33 H11         1.1705   -5.4095    0.4319 H         1 <0>         0.0000
     34 H12         2.8879   -5.6535    0.1281 H         1 <0>         0.0000
     35 H13         1.7055   -5.9859   -1.1517 H         1 <0>         0.0000
     36 H14        -0.0909   -3.4848   -0.7807 H         1 <0>         0.0000
     37 H15         0.4812   -4.1517   -2.3109 H         1 <0>         0.0000
     38 H16         0.7762   -2.4505   -1.9146 H         1 <0>         0.0000
     39 H17         0.3100   -1.1637    3.6759 H         1 <0>         0.0000
     40 H18         1.6568   -1.8137    4.6368 H         1 <0>         0.0000
     41 H19         0.4467   -2.9155    3.9448 H         1 <0>         0.0000
     42 H20         7.3251   -2.6069    3.3666 H         1 <0>         0.0000
     43 H21         6.7588   -1.1249    2.6110 H         1 <0>         0.0000
     44 H22         7.3992   -2.0872    0.2584 H         1 <0>         0.0000
     45 H23         8.0331   -3.4907    1.1269 H         1 <0>         0.0000
     46 H24         5.7385   -3.9535    2.0094 H         1 <0>         0.0000
     47 H25         2.5279   -1.8729   -0.0129 H         1 <0>         0.0000
     48 H26         4.4913   -1.4577    3.6101 H         1 <0>         0.0000
     49 H27         2.6832   -1.6060    2.5111 H         1 <0>         0.0000
     50 H28         3.8157   -4.1378    1.3829 H         1 <0>         0.0000
@<TRIPOS>BOND
     1    1   18 am
     2    1   20 2
     3    2   12 1
     4    2   17 am
     5    2   21 2
     6    3   13 1
     7    3   16 am
     8    3   22 2
     9    4   14 1
    10    5   14 1
    11    6   15 1
    12    7   15 1
    13    8   15 1
    14    9   16 1
    15   10   12 1
    16   10   14 1
    17   11   12 1
    18   11   18 1
    19   13   15 1
    20   13   17 1
    21   18   19 1
    22    1   23 1
    23    4   24 1
    24    4   25 1
    25    4   26 1
    26    5   27 1
    27    5   28 1
    28    5   29 1
    29    6   30 1
    30    6   31 1
    31    6   32 1
    32    7   33 1
    33    7   34 1
    34    7   35 1
    35    8   36 1
    36    8   37 1
    37    8   38 1
    38    9   39 1
    39    9   40 1
    40    9   41 1
    41   10   42 1
    42   10   43 1
    43   11   44 1
    44   11   45 1
    45   12   46 1
    46   13   47 1
    47   14   48 1
    48   16   49 1
    49   17   50 1
@<TRIPOS>MOLECULE
LIGAND
   50    49     0     0     0
SMALL
NO_CHARGES

@<TRIPOS>ATOM
      1 C1          7.4494   -6.0057    1.5877 C.2       1 <0>         0.0000
      2 C2          4.7609   -2.3304    1.0158 C.2       1 <0>         0.0000
      3 C3          1.4114   -2.9063    1.5049 C.2       1 <0>         0.0000
      4 C4          5.5916   -1.8934    4.5978 C.3       1 <0>         0.0000
      5 C5          7.0929    0.0222    4.0244 C.3       1 <0>         0.0000
      6 C6          3.1857   -3.8003   -1.8813 C.3       1 <0>         0.0000
      7 C7          1.9543   -5.3076   -0.3278 C.3       1 <0>         0.0000
      8 C8          0.7370   -3.4626   -1.4991 C.3       1 <0>         0.0000
      9 C9          0.8046   -4.1182    3.5770 C.3       1 <0>         0.0000
     10 C10         6.8665   -1.8668    2.3816 C.3       1 <0>         0.0000
     11 C11         6.8055   -3.7427    0.6616 C.3       1 <0>         0.0000
     12 C12         5.9953   -2.9363    1.6910 C.3       1 <0>         0.0000
     13 C13         2.4245   -2.8999    0.3599 C.3       1 <0>         0.0000
     14 C14         6.1374   -1.0321    3.4575 C.3       1 <0>         0.0000
     15 C15         2.0646   -3.8508   -0.8201 C.3       1 <0>         0.0000
     16 N1          1.6532   -3.9132    2.4277 N.am      1 <0>         0.0000
     17 N2          3.6959   -3.2182    0.9688 N.am      1 <0>         0.0000
     18 N3          7.7018   -4.6947    1.2608 N.am      1 <0>         0.0000
     19 O1          8.9648   -4.2050    1.5307 O.3       1 <0>         0.0000
     20 O2          6.3911   -6.6048    1.4210 O.2       1 <0>         0.0000
     21 O3          4.7482   -1.1914    0.5542 O.2       1 <0>         0.0000
     22 O4          0.4758   -2.1105    1.5728 O.2       1 <0>         0.0000
     23 H1          8.3147   -6.5219    2.0397 H         1 <0>         0.0000
     24 H2          6.4006   -2.4456    5.0885 H         1 <0>         0.0000
     25 H3          4.8609   -2.6219    4.2310 H         1 <0>         0.0000
     26 H4          5.1097   -1.2817    5.3659 H         1 <0>         0.0000
     27 H5          7.9623   -0.4436    4.5008 H         1 <0>         0.0000
     28 H6          7.4545    0.6861    3.2321 H         1 <0>         0.0000
     29 H7          6.5886    0.6429    4.7727 H         1 <0>         0.0000
     30 H8          3.3133   -2.7845   -2.2720 H         1 <0>         0.0000
     31 H9          2.9723   -4.4622   -2.7277 H         1 <0>         0.0000
     32 H10         4.1465   -4.1154   -1.4578 H         1 <0>         0.0000
     33 H11         1.1705   -5.4095    0.4319 H         1 <0>         0.0000
     34 H12         2.8879   -5.6535    0.1281 H         1 <0>         0.0000
     35 H13         1.7055   -5.9859   -1.1517 H         1 <0>         0.0000
     36 H14        -0.0909   -3.4848   -0.7807 H         1 <0>         0.0000
     37 H15         0.4812   -4.1517   -2.3109 H         1 <0>         0.0000
     38 H16         0.7762   -2.4505   -1.9146 H         1 <0>         0.0000
     39 H17         1.1692   -3.5298    4.4230 H         1 <0>         0.0000
     40 H18         0.7992   -5.1745    3.8593 H         1 <0>         0.0000
     41 H19        -0.2198   -3.8109    3.3501 H         1 <0>         0.0000
     42 H20         7.7322   -2.3581    2.8457 H         1 <0>         0.0000
     43 H21         7.2705   -1.1813    1.6250 H         1 <0>         0.0000
     44 H22         6.1354   -4.3010   -0.0008 H         1 <0>         0.0000
     45 H23         7.4165   -3.0830    0.0367 H         1 <0>         0.0000
     46 H24         5.6479   -3.6501    2.4472 H         1 <0>         0.0000
     47 H25         2.5279   -1.8729   -0.0129 H         1 <0>         0.0000
     48 H26         5.2955   -0.5008    2.9986 H         1 <0>         0.0000
     49 H27         2.4520   -4.5251    2.2903 H         1 <0>         0.0000
     50 H28         3.8157   -4.1378    1.3829 H         1 <0>         0.0000
@<TRIPOS>BOND
     1    1   18 am
     2    1   20 2
     3    2   12 1
     4    2   17 am
     5    2   21 2
     6    3   13 1
     7    3   16 am
     8    3   22 2
     9    4   14 1
    10    5   14 1
    11    6   15 1
    12    7   15 1
    13    8   15 1
    14    9   16 1
    15   10   12 1
    16   10   14 1
    17   11   12 1
    18   11   18 1
    19   13   15 1
    20   13   17 1
    21   18   19 1
    22    1   23 1
    23    4   24 1
    24    4   25 1
    25    4   26 1
    26    5   27 1
    27    5   28 1
    28    5   29 1
    29    6   30 1
    30    6   31 1
    31    6   32 1
    32    7   33 1
    33    7   34 1
    34    7   35 1
    35    8   36 1
    36    8   37 1
    37    8   38 1
    38    9   39 1
    39    9   40 1
    40    9   41 1
    41   10   42 1
    42   10   43 1
    43   11   44 1
    44   11   45 1
    45   12   46 1
    46   13   47 1
    47   14   48 1
    48   16   49 1
    49   17   50 1
@<TRIPOS>MOLECULE
LIGAND
   50    49     0     0     0
SMALL
NO_CHARGES

@<TRIPOS>ATOM
      1 C1          4.8090   -1.4670    4.7749 C.2       1 <0>         0.0000
      2 C2          4.7609   -2.3304    1.0158 C.2       1 <0>         0.0000
      3 C3          1.4114   -2.9063    1.5049 C.2       1 <0>         0.0000
      4 C4          8.5547   -3.1178   -0.0742 C.3       1 <0>         0.0000
      5 C5          7.6782   -5.2829   -0.9666 C.3       1 <0>         0.0000
      6 C6          3.1857   -3.8003   -1.8813 C.3       1 <0>         0.0000
      7 C7          1.9543   -5.3076   -0.3278 C.3       1 <0>         0.0000
      8 C8          0.7370   -3.4626   -1.4991 C.3       1 <0>         0.0000
      9 C9         -0.5781   -1.7107    2.3670 C.3       1 <0>         0.0000
     10 C10         6.4903   -4.2069    0.9698 C.3       1 <0>         0.0000
     11 C11         5.6912   -3.2135    3.1734 C.3       1 <0>         0.0000
     12 C12         5.9953   -2.9363    1.6910 C.3       1 <0>         0.0000
     13 C13         2.4245   -2.8999    0.3599 C.3       1 <0>         0.0000
     14 C14         7.2936   -3.9469   -0.3237 C.3       1 <0>         0.0000
     15 C15         2.0646   -3.8508   -0.8201 C.3       1 <0>         0.0000
     16 N1          0.4604   -1.9038    1.3835 N.am      1 <0>         0.0000
     17 N2          3.6959   -3.2182    0.9688 N.am      1 <0>         0.0000
     18 N3          5.7903   -2.0436    4.0042 N.am      1 <0>         0.0000
     19 O1          7.0353   -1.4457    4.0098 O.3       1 <0>         0.0000
     20 O2          4.9294   -0.4653    5.4738 O.2       1 <0>         0.0000
     21 O3          4.7482   -1.1914    0.5542 O.2       1 <0>         0.0000
     22 O4          1.4623   -3.7076    2.4368 O.2       1 <0>         0.0000
     23 H1          3.8406   -1.9954    4.7235 H         1 <0>         0.0000
     24 H2          9.2158   -3.6219    0.6392 H         1 <0>         0.0000
     25 H3          8.3079   -2.1320    0.3339 H         1 <0>         0.0000
     26 H4          9.1275   -2.9738   -0.9949 H         1 <0>         0.0000
     27 H5          8.3104   -5.8785   -0.2992 H         1 <0>         0.0000
     28 H6          6.7859   -5.8716   -1.2045 H         1 <0>         0.0000
     29 H7          8.2280   -5.1221   -1.9000 H         1 <0>         0.0000
     30 H8          3.3133   -2.7845   -2.2720 H         1 <0>         0.0000
     31 H9          2.9723   -4.4622   -2.7277 H         1 <0>         0.0000
     32 H10         4.1465   -4.1154   -1.4578 H         1 <0>         0.0000
     33 H11         1.1705   -5.4095    0.4319 H         1 <0>         0.0000
     34 H12         2.8879   -5.6535    0.1281 H         1 <0>         0.0000
     35 H13         1.7055   -5.9859   -1.1517 H         1 <0>         0.0000
     36 H14        -0.0909   -3.4848   -0.7807 H         1 <0>         0.0000
     37 H15         0.4812   -4.1517   -2.3109 H         1 <0>         0.0000
     38 H16         0.7762   -2.4505   -1.9146 H         1 <0>         0.0000
     39 H17        -1.4589   -2.3023    2.1044 H         1 <0>         0.0000
     40 H18        -0.8634   -0.6562    2.4133 H         1 <0>         0.0000
     41 H19        -0.2264   -2.0222    3.3542 H         1 <0>         0.0000
     42 H20         7.1160   -4.7876    1.6607 H         1 <0>         0.0000
     43 H21         5.6310   -4.8442    0.7228 H         1 <0>         0.0000
     44 H22         4.6761   -3.6079    3.2888 H         1 <0>         0.0000
     45 H23         6.3842   -3.9541    3.5861 H         1 <0>         0.0000
     46 H24         6.7931   -2.1847    1.6686 H         1 <0>         0.0000
     47 H25         2.5279   -1.8729   -0.0129 H         1 <0>         0.0000
     48 H26         6.6656   -3.4052   -1.0405 H         1 <0>         0.0000
     49 H27         0.4960   -1.2867    0.5777 H         1 <0>         0.0000
     50 H28         3.8157   -4.1378    1.3829 H         1 <0>         0.0000
@<TRIPOS>BOND
     1    1   18 am
     2    1   20 2
     3    2   12 1
     4    2   17 am
     5    2   21 2
     6    3   13 1
     7    3   16 am
     8    3   22 2
     9    4   14 1
    10    5   14 1
    11    6   15 1
    12    7   15 1
    13    8   15 1
    14    9   16 1
    15   10   12 1
    16   10   14 1
    17   11   12 1
    18   11   18 1
    19   13   15 1
    20   13   17 1
    21   18   19 1
    22    1   23 1
    23    4   24 1
    24    4   25 1
    25    4   26 1
    26    5   27 1
    27    5   28 1
    28    5   29 1
    29    6   30 1
    30    6   31 1
    31    6   32 1
    32    7   33 1
    33    7   34 1
    34    7   35 1
    35    8   36 1
    36    8   37 1
    37    8   38 1
    38    9   39 1
    39    9   40 1
    40    9   41 1
    41   10   42 1
    42   10   43 1
    43   11   44 1
    44   11   45 1
    45   12   46 1
    46   13   47 1
    47   14   48 1
    48   16   49 1
    49   17   50 1
@<TRIPOS>MOLECULE
LIGAND
   50    49     0     0     0
SMALL
NO_CHARGES

@<TRIPOS>ATOM
      1 C1          5.2485   -0.8480    3.9490 C.2       1 <0>         0.0000
      2 C2          4.7609   -2.3304    1.0158 C.2       1 <0>         0.0000
      3 C3          1.4114   -2.9063    1.5049 C.2       1 <0>         0.0000
      4 C4          7.9668   -2.9805   -0.7195 C.3       1 <0>         0.0000
      5 C5          7.2752   -5.3485   -1.1277 C.3       1 <0>         0.0000
      6 C6          2.6765   -3.3019   -2.1277 C.3       1 <0>         0.0000
      7 C7          2.6544   -5.2554   -0.5834 C.3       1 <0>         0.0000
      8 C8          0.5425   -3.9869   -1.0173 C.3       1 <0>         0.0000
      9 C9         -0.0359   -1.4126    2.8483 C.3       1 <0>         0.0000
     10 C10         6.4903   -4.2069    0.9698 C.3       1 <0>         0.0000
     11 C11         5.6912   -3.2135    3.1734 C.3       1 <0>         0.0000
     12 C12         5.9953   -2.9363    1.6910 C.3       1 <0>         0.0000
     13 C13         2.4245   -2.8999    0.3599 C.3       1 <0>         0.0000
     14 C14         6.8518   -4.0083   -0.5189 C.3       1 <0>         0.0000
     15 C15         2.0646   -3.8508   -0.8201 C.3       1 <0>         0.0000
     16 N1          0.9155   -1.6421    1.7876 N.am      1 <0>         0.0000
     17 N2          3.6959   -3.2182    0.9688 N.am      1 <0>         0.0000
     18 N3          4.9199   -2.1744    3.8012 N.am      1 <0>         0.0000
     19 O1          3.7039   -2.5877    4.3094 O.3       1 <0>         0.0000
     20 O2          6.2807   -0.3081    3.5621 O.2       1 <0>         0.0000
     21 O3          4.7482   -1.1914    0.5542 O.2       1 <0>         0.0000
     22 O4          1.0981   -3.9285    2.1133 O.2       1 <0>         0.0000
     23 H1          4.4754   -0.2579    4.4722 H         1 <0>         0.0000
     24 H2          8.8753   -3.2848   -0.1883 H         1 <0>         0.0000
     25 H3          7.6713   -1.9951   -0.3441 H         1 <0>         0.0000
     26 H4          8.2323   -2.8793   -1.7758 H         1 <0>         0.0000
     27 H5          8.1599   -5.7527   -0.6240 H         1 <0>         0.0000
     28 H6          6.4698   -6.0859   -1.0440 H         1 <0>         0.0000
     29 H7          7.5125   -5.2358   -2.1909 H         1 <0>         0.0000
     30 H8          2.2940   -2.2998   -2.3517 H         1 <0>         0.0000
     31 H9          2.4502   -3.9477   -2.9831 H         1 <0>         0.0000
     32 H10         3.7681   -3.2311   -2.0551 H         1 <0>         0.0000
     33 H11         2.2564   -5.7011    0.3358 H         1 <0>         0.0000
     34 H12         3.7440   -5.2254   -0.4780 H         1 <0>         0.0000
     35 H13         2.4105   -5.9315   -1.4105 H         1 <0>         0.0000
     36 H14         0.0636   -4.3749   -0.1106 H         1 <0>         0.0000
     37 H15         0.3004   -4.6763   -1.8330 H         1 <0>         0.0000
     38 H16         0.0759   -3.0219   -1.2405 H         1 <0>         0.0000
     39 H17        -1.0554   -1.5084    2.4658 H         1 <0>         0.0000
     40 H18         0.0924   -0.4080    3.2604 H         1 <0>         0.0000
     41 H19         0.1090   -2.1415    3.6503 H         1 <0>         0.0000
     42 H20         7.3727   -4.5944    1.4964 H         1 <0>         0.0000
     43 H21         5.7222   -4.9884    1.0394 H         1 <0>         0.0000
     44 H22         5.1267   -4.1459    3.2806 H         1 <0>         0.0000
     45 H23         6.6147   -3.3158    3.7527 H         1 <0>         0.0000
     46 H24         6.7931   -2.1847    1.6686 H         1 <0>         0.0000
     47 H25         2.5279   -1.8729   -0.0129 H         1 <0>         0.0000
     48 H26         5.9671   -3.6628   -1.0661 H         1 <0>         0.0000
     49 H27         1.2316   -0.8537    1.2310 H         1 <0>         0.0000
     50 H28         3.8157   -4.1378    1.3829 H         1 <0>         0.0000
@<TRIPOS>BOND
     1    1   18 am
     2    1   20 2
     3    2   12 1
     4    2   17 am
     5    2   21 2
     6    3   13 1
     7    3   16 am
     8    3   22 2
     9    4   14 1
    10    5   14 1
    11    6   15 1
    12    7   15 1
    13    8   15 1
    14    9   16 1
    15   10   12 1
    16   10   14 1
    17   11   12 1
    18   11   18 1
    19   13   15 1
    20   13   17 1
    21   18   19 1
    22    1   23 1
    23    4   24 1
    24    4   25 1
    25    4   26 1
    26    5   27 1
    27    5   28 1
    28    5   29 1
    29    6   30 1
    30    6   31 1
    31    6   32 1
    32    7   33 1
    33    7   34 1
    34    7   35 1
    35    8   36 1
    36    8   37 1
    37    8   38 1
    38    9   39 1
    39    9   40 1
    40    9   41 1
    41   10   42 1
    42   10   43 1
    43   11   44 1
    44   11   45 1
    45   12   46 1
    46   13   47 1
    47   14   48 1
    48   16   49 1
    49   17   50 1
@<TRIPOS>MOLECULE
LIGAND
   50    49     0     0     0
SMALL
NO_CHARGES

@<TRIPOS>ATOM
      1 C1          6.4496   -5.2442   -0.4265 C.2       1 <0>         0.0000
      2 C2          4.7609   -2.3304    1.0158 C.2       1 <0>         0.0000
      3 C3          1.4114   -2.9063    1.5049 C.2       1 <0>         0.0000
      4 C4          4.8998   -3.3220    4.5808 C.3       1 <0>         0.0000
      5 C5          5.9126   -1.1117    5.1647 C.3       1 <0>         0.0000
      6 C6          3.1857   -3.8003   -1.8813 C.3       1 <0>         0.0000
      7 C7          1.9543   -5.3076   -0.3278 C.3       1 <0>         0.0000
      8 C8          0.7370   -3.4626   -1.4991 C.3       1 <0>         0.0000
      9 C9          1.0123   -1.9958    3.7725 C.3       1 <0>         0.0000
     10 C10         6.4405   -2.1272    2.9267 C.3       1 <0>         0.0000
     11 C11         7.1342   -3.0688    0.6654 C.3       1 <0>         0.0000
     12 C12         5.9953   -2.9363    1.6910 C.3       1 <0>         0.0000
     13 C13         2.4245   -2.8999    0.3599 C.3       1 <0>         0.0000
     14 C14         5.3645   -1.9750    4.0244 C.3       1 <0>         0.0000
     15 C15         2.0646   -3.8508   -0.8201 C.3       1 <0>         0.0000
     16 N1          1.8071   -2.1159    2.5738 N.am      1 <0>         0.0000
     17 N2          3.6959   -3.2182    0.9688 N.am      1 <0>         0.0000
     18 N3          6.8025   -3.9159   -0.4486 N.am      1 <0>         0.0000
     19 O1          6.8526   -3.2928   -1.6802 O.3       1 <0>         0.0000
     20 O2          6.3544   -5.9537    0.5706 O.2       1 <0>         0.0000
     21 O3          4.7482   -1.1914    0.5542 O.2       1 <0>         0.0000
     22 O4          0.3728   -3.5647    1.4736 O.2       1 <0>         0.0000
     23 H1          6.2432   -5.6623   -1.4276 H         1 <0>         0.0000
     24 H2          5.7423   -3.8772    5.0075 H         1 <0>         0.0000
     25 H3          4.4501   -3.9417    3.7978 H         1 <0>         0.0000
     26 H4          4.1642   -3.1925    5.3800 H         1 <0>         0.0000
     27 H5          6.7922   -1.5734    5.6261 H         1 <0>         0.0000
     28 H6          6.2016   -0.1209    4.7985 H         1 <0>         0.0000
     29 H7          5.1564   -0.9697    5.9440 H         1 <0>         0.0000
     30 H8          3.3133   -2.7845   -2.2720 H         1 <0>         0.0000
     31 H9          2.9723   -4.4622   -2.7277 H         1 <0>         0.0000
     32 H10         4.1465   -4.1154   -1.4578 H         1 <0>         0.0000
     33 H11         1.1705   -5.4095    0.4319 H         1 <0>         0.0000
     34 H12         2.8879   -5.6535    0.1281 H         1 <0>         0.0000
     35 H13         1.7055   -5.9859   -1.1517 H         1 <0>         0.0000
     36 H14        -0.0909   -3.4848   -0.7807 H         1 <0>         0.0000
     37 H15         0.4812   -4.1517   -2.3109 H         1 <0>         0.0000
     38 H16         0.7762   -2.4505   -1.9146 H         1 <0>         0.0000
     39 H17         0.3100   -1.1637    3.6759 H         1 <0>         0.0000
     40 H18         1.6568   -1.8137    4.6368 H         1 <0>         0.0000
     41 H19         0.4467   -2.9155    3.9448 H         1 <0>         0.0000
     42 H20         7.3251   -2.6069    3.3666 H         1 <0>         0.0000
     43 H21         6.7588   -1.1249    2.6110 H         1 <0>         0.0000
     44 H22         7.3992   -2.0872    0.2584 H         1 <0>         0.0000
     45 H23         8.0331   -3.4907    1.1269 H         1 <0>         0.0000
     46 H24         5.7385   -3.9535    2.0094 H         1 <0>         0.0000
     47 H25         2.5279   -1.8729   -0.0129 H         1 <0>         0.0000
     48 H26         4.4913   -1.4577    3.6101 H         1 <0>         0.0000
     49 H27         2.6832   -1.6060    2.5111 H         1 <0>         0.0000
     50 H28         3.8157   -4.1378    1.3829 H         1 <0>         0.0000
@<TRIPOS>BOND
     1    1   18 am
     2    1   20 2
     3    2   12 1
     4    2   17 am
     5    2   21 2
     6    3   13 1
     7    3   16 am
     8    3   22 2
     9    4   14 1
    10    5   14 1
    11    6   15 1
    12    7   15 1
    13    8   15 1
    14    9   16 1
    15   10   12 1
    16   10   14 1
    17   11   12 1
    18   11   18 1
    19   13   15 1
    20   13   17 1
    21   18   19 1
    22    1   23 1
    23    4   24 1
    24    4   25 1
    25    4   26 1
    26    5   27 1
    27    5   28 1
    28    5   29 1
    29    6   30 1
    30    6   31 1
    31    6   32 1
    32    7   33 1
    33    7   34 1
    34    7   35 1
    35    8   36 1
    36    8   37 1
    37    8   38 1
    38    9   39 1
    39    9   40 1
    40    9   41 1
    41   10   42 1
    42   10   43 1
    43   11   44 1
    44   11   45 1
    45   12   46 1
    46   13   47 1
    47   14   48 1
    48   16   49 1
    49   17   50 1
@<TRIPOS>MOLECULE
LIGAND
   50    49     0     0     0
SMALL
NO_CHARGES

@<TRIPOS>ATOM
      1 C1          7.8097   -2.2228   -1.0920 C.2       1 <0>         0.0000
      2 C2          4.7609   -2.3304    1.0158 C.2       1 <0>         0.0000
      3 C3          1.6238   -2.1763    1.4428 C.2       1 <0>         0.0000
      4 C4          5.5916   -1.8934    4.5978 C.3       1 <0>         0.0000
      5 C5          7.0929    0.0222    4.0244 C.3       1 <0>         0.0000
      6 C6          2.6382   -4.8237   -1.2732 C.3       1 <0>         0.0000
      7 C7          1.4139   -5.1834    0.8654 C.3       1 <0>         0.0000
      8 C8          0.3871   -3.7862   -0.9377 C.3       1 <0>         0.0000
      9 C9          0.0532   -0.2939    1.7895 C.3       1 <0>         0.0000
     10 C10         6.8665   -1.8668    2.3816 C.3       1 <0>         0.0000
     11 C11         6.8055   -3.7427    0.6616 C.3       1 <0>         0.0000
     12 C12         5.9953   -2.9363    1.6910 C.3       1 <0>         0.0000
     13 C13         2.4245   -2.8999    0.3599 C.3       1 <0>         0.0000
     14 C14         6.1374   -1.0321    3.4575 C.3       1 <0>         0.0000
     15 C15         1.7114   -4.1488   -0.2382 C.3       1 <0>         0.0000
     16 N1          0.8675   -1.1285    0.9389 N.am      1 <0>         0.0000
     17 N2          3.6959   -3.2182    0.9688 N.am      1 <0>         0.0000
     18 N3          6.8710   -3.1147   -0.6307 N.am      1 <0>         0.0000
     19 O1          5.8533   -3.4689   -1.4948 O.3       1 <0>         0.0000
     20 O2          7.8344   -1.7052   -2.2047 O.2       1 <0>         0.0000
     21 O3          4.7482   -1.1914    0.5542 O.2       1 <0>         0.0000
     22 O4          1.6741   -2.4892    2.6314 O.2       1 <0>         0.0000
     23 H1          8.5928   -1.9842   -0.3508 H         1 <0>         0.0000
     24 H2          6.4006   -2.4456    5.0885 H         1 <0>         0.0000
     25 H3          4.8609   -2.6219    4.2310 H         1 <0>         0.0000
     26 H4          5.1097   -1.2817    5.3659 H         1 <0>         0.0000
     27 H5          7.9623   -0.4436    4.5008 H         1 <0>         0.0000
     28 H6          7.4545    0.6861    3.2321 H         1 <0>         0.0000
     29 H7          6.5886    0.6429    4.7727 H         1 <0>         0.0000
     30 H8          2.8872   -4.1345   -2.0879 H         1 <0>         0.0000
     31 H9          2.1738   -5.7124   -1.7140 H         1 <0>         0.0000
     32 H10         3.5794   -5.1449   -0.8119 H         1 <0>         0.0000
     33 H11         0.7565   -4.7621    1.6349 H         1 <0>         0.0000
     34 H12         2.3282   -5.5113    1.3711 H         1 <0>         0.0000
     35 H13         0.9158   -6.0685    0.4541 H         1 <0>         0.0000
     36 H14        -0.3050   -3.3025   -0.2384 H         1 <0>         0.0000
     37 H15        -0.1179   -4.6740   -1.3329 H         1 <0>         0.0000
     38 H16         0.5457   -3.0900   -1.7676 H         1 <0>         0.0000
     39 H17        -0.9522   -0.7139    1.8767 H         1 <0>         0.0000
     40 H18        -0.0213    0.7135    1.3710 H         1 <0>         0.0000
     41 H19         0.4945   -0.2269    2.7876 H         1 <0>         0.0000
     42 H20         7.7322   -2.3581    2.8457 H         1 <0>         0.0000
     43 H21         7.2705   -1.1813    1.6250 H         1 <0>         0.0000
     44 H22         7.8354   -3.8802    1.0076 H         1 <0>         0.0000
     45 H23         6.3710   -4.7361    0.5088 H         1 <0>         0.0000
     46 H24         5.6479   -3.6501    2.4472 H         1 <0>         0.0000
     47 H25         2.6549   -2.1876   -0.4426 H         1 <0>         0.0000
     48 H26         5.2955   -0.5008    2.9986 H         1 <0>         0.0000
     49 H27         0.8872   -0.9429   -0.0594 H         1 <0>         0.0000
     50 H28         3.8157   -4.1378    1.3829 H         1 <0>         0.0000
@<TRIPOS>BOND
     1    1   18 am
     2    1   20 2
     3    2   12 1
     4    2   17 am
     5    2   21 2
     6    3   13 1
     7    3   16 am
     8    3   22 2
     9    4   14 1
    10    5   14 1
    11    6   15 1
    12    7   15 1
    13    8   15 1
    14    9   16 1
    15   10   12 1
    16   10   14 1
    17   11   12 1
    18   11   18 1
    19   13   15 1
    20   13   17 1
    21   18   19 1
    22    1   23 1
    23    4   24 1
    24    4   25 1
    25    4   26 1
    26    5   27 1
    27    5   28 1
    28    5   29 1
    29    6   30 1
    30    6   31 1
    31    6   32 1
    32    7   33 1
    33    7   34 1
    34    7   35 1
    35    8   36 1
    36    8   37 1
    37    8   38 1
    38    9   39 1
    39    9   40 1
    40    9   41 1
    41   10   42 1
    42   10   43 1
    43   11   44 1
    44   11   45 1
    45   12   46 1
    46   13   47 1
    47   14   48 1
    48   16   49 1
    49   17   50 1
@<TRIPOS>MOLECULE
LIGAND
   50    49     0     0     0
SMALL
NO_CHARGES

@<TRIPOS>ATOM
      1 C1          4.8090   -1.4670    4.7749 C.2       1 <0>         0.0000
      2 C2          4.7609   -2.3304    1.0158 C.2       1 <0>         0.0000
      3 C3          1.6238   -2.1763    1.4428 C.2       1 <0>         0.0000
      4 C4          8.5547   -3.1178   -0.0742 C.3       1 <0>         0.0000
      5 C5          7.6782   -5.2829   -0.9666 C.3       1 <0>         0.0000
      6 C6          2.6382   -4.8237   -1.2732 C.3       1 <0>         0.0000
      7 C7          1.4139   -5.1834    0.8654 C.3       1 <0>         0.0000
      8 C8          0.3871   -3.7862   -0.9377 C.3       1 <0>         0.0000
      9 C9          0.0532   -0.2939    1.7895 C.3       1 <0>         0.0000
     10 C10         6.4903   -4.2069    0.9698 C.3       1 <0>         0.0000
     11 C11         5.6912   -3.2135    3.1734 C.3       1 <0>         0.0000
     12 C12         5.9953   -2.9363    1.6910 C.3       1 <0>         0.0000
     13 C13         2.4245   -2.8999    0.3599 C.3       1 <0>         0.0000
     14 C14         7.2936   -3.9469   -0.3237 C.3       1 <0>         0.0000
     15 C15         1.7114   -4.1488   -0.2382 C.3       1 <0>         0.0000
     16 N1          0.8675   -1.1285    0.9389 N.am      1 <0>         0.0000
     17 N2          3.6959   -3.2182    0.9688 N.am      1 <0>         0.0000
     18 N3          5.7903   -2.0436    4.0042 N.am      1 <0>         0.0000
     19 O1          7.0353   -1.4457    4.0098 O.3       1 <0>         0.0000
     20 O2          4.9294   -0.4653    5.4738 O.2       1 <0>         0.0000
     21 O3          4.7482   -1.1914    0.5542 O.2       1 <0>         0.0000
     22 O4          1.6741   -2.4892    2.6314 O.2       1 <0>         0.0000
     23 H1          3.8406   -1.9954    4.7235 H         1 <0>         0.0000
     24 H2          9.2158   -3.6219    0.6392 H         1 <0>         0.0000
     25 H3          8.3079   -2.1320    0.3339 H         1 <0>         0.0000
     26 H4          9.1275   -2.9738   -0.9949 H         1 <0>         0.0000
     27 H5          8.3104   -5.8785   -0.2992 H         1 <0>         0.0000
     28 H6          6.7859   -5.8716   -1.2045 H         1 <0>         0.0000
     29 H7          8.2280   -5.1221   -1.9000 H         1 <0>         0.0000
     30 H8          2.8872   -4.1345   -2.0879 H         1 <0>         0.0000
     31 H9          2.1738   -5.7124   -1.7140 H         1 <0>         0.0000
     32 H10         3.5794   -5.1449   -0.8119 H         1 <0>         0.0000
     33 H11         0.7565   -4.7621    1.6349 H         1 <0>         0.0000
     34 H12         2.3282   -5.5113    1.3711 H         1 <0>         0.0000
     35 H13         0.9158   -6.0685    0.4541 H         1 <0>         0.0000
     36 H14        -0.3050   -3.3025   -0.2384 H         1 <0>         0.0000
     37 H15        -0.1179   -4.6740   -1.3329 H         1 <0>         0.0000
     38 H16         0.5457   -3.0900   -1.7676 H         1 <0>         0.0000
     39 H17        -0.9522   -0.7139    1.8767 H         1 <0>         0.0000
     40 H18        -0.0213    0.7135    1.3710 H         1 <0>         0.0000
     41 H19         0.4945   -0.2269    2.7876 H         1 <0>         0.0000
     42 H20         7.1160   -4.7876    1.6607 H         1 <0>         0.0000
     43 H21         5.6310   -4.8442    0.7228 H         1 <0>         0.0000
     44 H22         4.6761   -3.6079    3.2888 H         1 <0>         0.0000
     45 H23         6.3842   -3.9541    3.5861 H         1 <0>         0.0000
     46 H24         6.7931   -2.1847    1.6686 H         1 <0>         0.0000
     47 H25         2.6549   -2.1876   -0.4426 H         1 <0>         0.0000
     48 H26         6.6656   -3.4052   -1.0405 H         1 <0>         0.0000
     49 H27         0.8872   -0.9429   -0.0594 H         1 <0>         0.0000
     50 H28         3.8157   -4.1378    1.3829 H         1 <0>         0.0000
@<TRIPOS>BOND
     1    1   18 am
     2    1   20 2
     3    2   12 1
     4    2   17 am
     5    2   21 2
     6    3   13 1
     7    3   16 am
     8    3   22 2
     9    4   14 1
    10    5   14 1
    11    6   15 1
    12    7   15 1
    13    8   15 1
    14    9   16 1
    15   10   12 1
    16   10   14 1
    17   11   12 1
    18   11   18 1
    19   13   15 1
    20   13   17 1
    21   18   19 1
    22    1   23 1
    23    4   24 1
    24    4   25 1
    25    4   26 1
    26    5   27 1
    27    5   28 1
    28    5   29 1
    29    6   30 1
    30    6   31 1
    31    6   32 1
    32    7   33 1
    33    7   34 1
    34    7   35 1
    35    8   36 1
    36    8   37 1
    37    8   38 1
    38    9   39 1
    39    9   40 1
    40    9   41 1
    41   10   42 1
    42   10   43 1
    43   11   44 1
    44   11   45 1
    45   12   46 1
    46   13   47 1
    47   14   48 1
    48   16   49 1
    49   17   50 1
@<TRIPOS>MOLECULE
LIGAND
   50    49     0     0     0
SMALL
NO_CHARGES

@<TRIPOS>ATOM
      1 C1          6.9917   -5.2723   -0.5666 C.2       1 <0>         0.0000
      2 C2          4.7609   -2.3304    1.0158 C.2       1 <0>         0.0000
      3 C3          1.6238   -2.1763    1.4428 C.2       1 <0>         0.0000
      4 C4          4.8998   -3.3220    4.5808 C.3       1 <0>         0.0000
      5 C5          5.9126   -1.1117    5.1647 C.3       1 <0>         0.0000
      6 C6          2.6382   -4.8237   -1.2732 C.3       1 <0>         0.0000
      7 C7          1.4139   -5.1834    0.8654 C.3       1 <0>         0.0000
      8 C8          0.3871   -3.7862   -0.9377 C.3       1 <0>         0.0000
      9 C9          1.3383    0.0348    2.5199 C.3       1 <0>         0.0000
     10 C10         6.4405   -2.1272    2.9267 C.3       1 <0>         0.0000
     11 C11         7.1342   -3.0688    0.6654 C.3       1 <0>         0.0000
     12 C12         5.9953   -2.9363    1.6910 C.3       1 <0>         0.0000
     13 C13         2.4245   -2.8999    0.3599 C.3       1 <0>         0.0000
     14 C14         5.3645   -1.9750    4.0244 C.3       1 <0>         0.0000
     15 C15         1.7114   -4.1488   -0.2382 C.3       1 <0>         0.0000
     16 N1          1.9549   -0.8333    1.5455 N.am      1 <0>         0.0000
     17 N2          3.6959   -3.2182    0.9688 N.am      1 <0>         0.0000
     18 N3          6.8025   -3.9159   -0.4486 N.am      1 <0>         0.0000
     19 O1          6.2241   -3.2602   -1.5178 O.3       1 <0>         0.0000
     20 O2          7.4878   -6.0124    0.2776 O.2       1 <0>         0.0000
     21 O3          4.7482   -1.1914    0.5542 O.2       1 <0>         0.0000
     22 O4          0.7950   -2.7447    2.1522 O.2       1 <0>         0.0000
     23 H1          6.6469   -5.6832   -1.5319 H         1 <0>         0.0000
     24 H2          5.7423   -3.8772    5.0075 H         1 <0>         0.0000
     25 H3          4.4501   -3.9417    3.7978 H         1 <0>         0.0000
     26 H4          4.1642   -3.1925    5.3800 H         1 <0>         0.0000
     27 H5          6.7922   -1.5734    5.6261 H         1 <0>         0.0000
     28 H6          6.2016   -0.1209    4.7985 H         1 <0>         0.0000
     29 H7          5.1564   -0.9697    5.9440 H         1 <0>         0.0000
     30 H8          2.8872   -4.1345   -2.0879 H         1 <0>         0.0000
     31 H9          2.1738   -5.7124   -1.7140 H         1 <0>         0.0000
     32 H10         3.5794   -5.1449   -0.8119 H         1 <0>         0.0000
     33 H11         0.7565   -4.7621    1.6349 H         1 <0>         0.0000
     34 H12         2.3282   -5.5113    1.3711 H         1 <0>         0.0000
     35 H13         0.9158   -6.0685    0.4541 H         1 <0>         0.0000
     36 H14        -0.3050   -3.3025   -0.2384 H         1 <0>         0.0000
     37 H15        -0.1179   -4.6740   -1.3329 H         1 <0>         0.0000
     38 H16         0.5457   -3.0900   -1.7676 H         1 <0>         0.0000
     39 H17         0.4402    0.4941    2.0989 H         1 <0>         0.0000
     40 H18         2.0331    0.8259    2.8147 H         1 <0>         0.0000
     41 H19         1.0580   -0.5350    3.4100 H         1 <0>         0.0000
     42 H20         7.3251   -2.6069    3.3666 H         1 <0>         0.0000
     43 H21         6.7588   -1.1249    2.6110 H         1 <0>         0.0000
     44 H22         7.3992   -2.0872    0.2584 H         1 <0>         0.0000
     45 H23         8.0331   -3.4907    1.1269 H         1 <0>         0.0000
     46 H24         5.7385   -3.9535    2.0094 H         1 <0>         0.0000
     47 H25         2.6549   -2.1876   -0.4426 H         1 <0>         0.0000
     48 H26         4.4913   -1.4577    3.6101 H         1 <0>         0.0000
     49 H27         2.6527   -0.4488    0.9157 H         1 <0>         0.0000
     50 H28         3.8157   -4.1378    1.3829 H         1 <0>         0.0000
@<TRIPOS>BOND
     1    1   18 am
     2    1   20 2
     3    2   12 1
     4    2   17 am
     5    2   21 2
     6    3   13 1
     7    3   16 am
     8    3   22 2
     9    4   14 1
    10    5   14 1
    11    6   15 1
    12    7   15 1
    13    8   15 1
    14    9   16 1
    15   10   12 1
    16   10   14 1
    17   11   12 1
    18   11   18 1
    19   13   15 1
    20   13   17 1
    21   18   19 1
    22    1   23 1
    23    4   24 1
    24    4   25 1
    25    4   26 1
    26    5   27 1
    27    5   28 1
    28    5   29 1
    29    6   30 1
    30    6   31 1
    31    6   32 1
    32    7   33 1
    33    7   34 1
    34    7   35 1
    35    8   36 1
    36    8   37 1
    37    8   38 1
    38    9   39 1
    39    9   40 1
    40    9   41 1
    41   10   42 1
    42   10   43 1
    43   11   44 1
    44   11   45 1
    45   12   46 1
    46   13   47 1
    47   14   48 1
    48   16   49 1
    49   17   50 1
@<TRIPOS>MOLECULE
LIGAND
   50    49     0     0     0
SMALL
NO_CHARGES

@<TRIPOS>ATOM
      1 C1          8.2041   -5.3564    0.7906 C.2       1 <0>         0.0000
      2 C2          4.7609   -2.3304    1.0158 C.2       1 <0>         0.0000
      3 C3          1.4114   -2.9063    1.5049 C.2       1 <0>         0.0000
      4 C4          4.8998   -3.3220    4.5808 C.3       1 <0>         0.0000
      5 C5          5.9126   -1.1117    5.1647 C.3       1 <0>         0.0000
      6 C6          3.1857   -3.8003   -1.8813 C.3       1 <0>         0.0000
      7 C7          1.9543   -5.3076   -0.3278 C.3       1 <0>         0.0000
      8 C8          0.7370   -3.4626   -1.4991 C.3       1 <0>         0.0000
      9 C9          1.0123   -1.9958    3.7725 C.3       1 <0>         0.0000
     10 C10         6.4405   -2.1272    2.9267 C.3       1 <0>         0.0000
     11 C11         7.1342   -3.0688    0.6654 C.3       1 <0>         0.0000
     12 C12         5.9953   -2.9363    1.6910 C.3       1 <0>         0.0000
     13 C13         2.4245   -2.8999    0.3599 C.3       1 <0>         0.0000
     14 C14         5.3645   -1.9750    4.0244 C.3       1 <0>         0.0000
     15 C15         2.0646   -3.8508   -0.8201 C.3       1 <0>         0.0000
     16 N1          1.8071   -2.1159    2.5738 N.am      1 <0>         0.0000
     17 N2          3.6959   -3.2182    0.9688 N.am      1 <0>         0.0000
     18 N3          8.1489   -4.0093    1.0586 N.am      1 <0>         0.0000
     19 O1          9.1831   -3.4656    1.7950 O.3       1 <0>         0.0000
     20 O2          7.3782   -6.0047    0.1549 O.2       1 <0>         0.0000
     21 O3          4.7482   -1.1914    0.5542 O.2       1 <0>         0.0000
     22 O4          0.3728   -3.5647    1.4736 O.2       1 <0>         0.0000
     23 H1          9.0967   -5.8531    1.2102 H         1 <0>         0.0000
     24 H2          5.7423   -3.8772    5.0075 H         1 <0>         0.0000
     25 H3          4.4501   -3.9417    3.7978 H         1 <0>         0.0000
     26 H4          4.1642   -3.1925    5.3800 H         1 <0>         0.0000
     27 H5          6.7922   -1.5734    5.6261 H         1 <0>         0.0000
     28 H6          6.2016   -0.1209    4.7985 H         1 <0>         0.0000
     29 H7          5.1564   -0.9697    5.9440 H         1 <0>         0.0000
     30 H8          3.3133   -2.7845   -2.2720 H         1 <0>         0.0000
     31 H9          2.9723   -4.4622   -2.7277 H         1 <0>         0.0000
     32 H10         4.1465   -4.1154   -1.4578 H         1 <0>         0.0000
     33 H11         1.1705   -5.4095    0.4319 H         1 <0>         0.0000
     34 H12         2.8879   -5.6535    0.1281 H         1 <0>         0.0000
     35 H13         1.7055   -5.9859   -1.1517 H         1 <0>         0.0000
     36 H14        -0.0909   -3.4848   -0.7807 H         1 <0>         0.0000
     37 H15         0.4812   -4.1517   -2.3109 H         1 <0>         0.0000
     38 H16         0.7762   -2.4505   -1.9146 H         1 <0>         0.0000
     39 H17         0.3100   -1.1637    3.6759 H         1 <0>         0.0000
     40 H18         1.6568   -1.8137    4.6368 H         1 <0>         0.0000
     41 H19         0.4467   -2.9155    3.9448 H         1 <0>         0.0000
     42 H20         7.3251   -2.6069    3.3666 H         1 <0>         0.0000
     43 H21         6.7588   -1.1249    2.6110 H         1 <0>         0.0000
     44 H22         6.7419   -3.4007   -0.3017 H         1 <0>         0.0000
     45 H23         7.6368   -2.1087    0.5083 H         1 <0>         0.0000
     46 H24         5.7385   -3.9535    2.0094 H         1 <0>         0.0000
     47 H25         2.5279   -1.8729   -0.0129 H         1 <0>         0.0000
     48 H26         4.4913   -1.4577    3.6101 H         1 <0>         0.0000
     49 H27         2.6832   -1.6060    2.5111 H         1 <0>         0.0000
     50 H28         3.8157   -4.1378    1.3829 H         1 <0>         0.0000
@<TRIPOS>BOND
     1    1   18 am
     2    1   20 2
     3    2   12 1
     4    2   17 am
     5    2   21 2
     6    3   13 1
     7    3   16 am
     8    3   22 2
     9    4   14 1
    10    5   14 1
    11    6   15 1
    12    7   15 1
    13    8   15 1
    14    9   16 1
    15   10   12 1
    16   10   14 1
    17   11   12 1
    18   11   18 1
    19   13   15 1
    20   13   17 1
    21   18   19 1
    22    1   23 1
    23    4   24 1
    24    4   25 1
    25    4   26 1
    26    5   27 1
    27    5   28 1
    28    5   29 1
    29    6   30 1
    30    6   31 1
    31    6   32 1
    32    7   33 1
    33    7   34 1
    34    7   35 1
    35    8   36 1
    36    8   37 1
    37    8   38 1
    38    9   39 1
    39    9   40 1
    40    9   41 1
    41   10   42 1
    42   10   43 1
    43   11   44 1
    44   11   45 1
    45   12   46 1
    46   13   47 1
    47   14   48 1
    48   16   49 1
    49   17   50 1
@<TRIPOS>MOLECULE
LIGAND
   50    49     0     0     0
SMALL
NO_CHARGES

@<TRIPOS>ATOM
      1 C1          7.5793   -4.4967    4.2605 C.2       1 <0>         0.0000
      2 C2          4.7609   -2.3304    1.0158 C.2       1 <0>         0.0000
      3 C3          1.4114   -2.9063    1.5049 C.2       1 <0>         0.0000
      4 C4          7.9668   -2.9805   -0.7195 C.3       1 <0>         0.0000
      5 C5          7.2752   -5.3485   -1.1277 C.3       1 <0>         0.0000
      6 C6          3.1857   -3.8003   -1.8813 C.3       1 <0>         0.0000
      7 C7          1.9543   -5.3076   -0.3278 C.3       1 <0>         0.0000
      8 C8          0.7370   -3.4626   -1.4991 C.3       1 <0>         0.0000
      9 C9          1.0123   -1.9958    3.7725 C.3       1 <0>         0.0000
     10 C10         6.4903   -4.2069    0.9698 C.3       1 <0>         0.0000
     11 C11         5.6912   -3.2135    3.1734 C.3       1 <0>         0.0000
     12 C12         5.9953   -2.9363    1.6910 C.3       1 <0>         0.0000
     13 C13         2.4245   -2.8999    0.3599 C.3       1 <0>         0.0000
     14 C14         6.8518   -4.0083   -0.5189 C.3       1 <0>         0.0000
     15 C15         2.0646   -3.8508   -0.8201 C.3       1 <0>         0.0000
     16 N1          1.8071   -2.1159    2.5738 N.am      1 <0>         0.0000
     17 N2          3.6959   -3.2182    0.9688 N.am      1 <0>         0.0000
     18 N3          6.8729   -3.3510    3.9817 N.am      1 <0>         0.0000
     19 O1          7.3330   -2.1714    4.5335 O.3       1 <0>         0.0000
     20 O2          7.3180   -5.6268    3.8588 O.2       1 <0>         0.0000
     21 O3          4.7482   -1.1914    0.5542 O.2       1 <0>         0.0000
     22 O4          0.3728   -3.5647    1.4736 O.2       1 <0>         0.0000
     23 H1          8.4551   -4.3273    4.9116 H         1 <0>         0.0000
     24 H2          8.8753   -3.2848   -0.1883 H         1 <0>         0.0000
     25 H3          7.6713   -1.9951   -0.3441 H         1 <0>         0.0000
     26 H4          8.2323   -2.8793   -1.7758 H         1 <0>         0.0000
     27 H5          8.1599   -5.7527   -0.6240 H         1 <0>         0.0000
     28 H6          6.4698   -6.0859   -1.0440 H         1 <0>         0.0000
     29 H7          7.5125   -5.2358   -2.1909 H         1 <0>         0.0000
     30 H8          3.3133   -2.7845   -2.2720 H         1 <0>         0.0000
     31 H9          2.9723   -4.4622   -2.7277 H         1 <0>         0.0000
     32 H10         4.1465   -4.1154   -1.4578 H         1 <0>         0.0000
     33 H11         1.1705   -5.4095    0.4319 H         1 <0>         0.0000
     34 H12         2.8879   -5.6535    0.1281 H         1 <0>         0.0000
     35 H13         1.7055   -5.9859   -1.1517 H         1 <0>         0.0000
     36 H14        -0.0909   -3.4848   -0.7807 H         1 <0>         0.0000
     37 H15         0.4812   -4.1517   -2.3109 H         1 <0>         0.0000
     38 H16         0.7762   -2.4505   -1.9146 H         1 <0>         0.0000
     39 H17         0.3100   -1.1637    3.6759 H         1 <0>         0.0000
     40 H18         1.6568   -1.8137    4.6368 H         1 <0>         0.0000
     41 H19         0.4467   -2.9155    3.9448 H         1 <0>         0.0000
     42 H20         7.3727   -4.5944    1.4964 H         1 <0>         0.0000
     43 H21         5.7222   -4.9884    1.0394 H         1 <0>         0.0000
     44 H22         5.0986   -2.3982    3.6018 H         1 <0>         0.0000
     45 H23         5.1177   -4.1388    3.2917 H         1 <0>         0.0000
     46 H24         6.7931   -2.1847    1.6686 H         1 <0>         0.0000
     47 H25         2.5279   -1.8729   -0.0129 H         1 <0>         0.0000
     48 H26         5.9671   -3.6628   -1.0661 H         1 <0>         0.0000
     49 H27         2.6832   -1.6060    2.5111 H         1 <0>         0.0000
     50 H28         3.8157   -4.1378    1.3829 H         1 <0>         0.0000
@<TRIPOS>BOND
     1    1   18 am
     2    1   20 2
     3    2   12 1
     4    2   17 am
     5    2   21 2
     6    3   13 1
     7    3   16 am
     8    3   22 2
     9    4   14 1
    10    5   14 1
    11    6   15 1
    12    7   15 1
    13    8   15 1
    14    9   16 1
    15   10   12 1
    16   10   14 1
    17   11   12 1
    18   11   18 1
    19   13   15 1
    20   13   17 1
    21   18   19 1
    22    1   23 1
    23    4   24 1
    24    4   25 1
    25    4   26 1
    26    5   27 1
    27    5   28 1
    28    5   29 1
    29    6   30 1
    30    6   31 1
    31    6   32 1
    32    7   33 1
    33    7   34 1
    34    7   35 1
    35    8   36 1
    36    8   37 1
    37    8   38 1
    38    9   39 1
    39    9   40 1
    40    9   41 1
    41   10   42 1
    42   10   43 1
    43   11   44 1
    44   11   45 1
    45   12   46 1
    46   13   47 1
    47   14   48 1
    48   16   49 1
    49   17   50 1
@<TRIPOS>MOLECULE
LIGAND
   50    49     0     0     0
SMALL
NO_CHARGES

@<TRIPOS>ATOM
      1 C1          6.7648   -3.5849   -1.7822 C.2       1 <0>         0.0000
      2 C2          4.7609   -2.3304    1.0158 C.2       1 <0>         0.0000
      3 C3          1.4114   -2.9063    1.5049 C.2       1 <0>         0.0000
      4 C4          4.8998   -3.3220    4.5808 C.3       1 <0>         0.0000
      5 C5          5.9126   -1.1117    5.1647 C.3       1 <0>         0.0000
      6 C6          3.1857   -3.8003   -1.8813 C.3       1 <0>         0.0000
      7 C7          1.9543   -5.3076   -0.3278 C.3       1 <0>         0.0000
      8 C8          0.7370   -3.4626   -1.4991 C.3       1 <0>         0.0000
      9 C9          0.8046   -4.1182    3.5770 C.3       1 <0>         0.0000
     10 C10         6.4405   -2.1272    2.9267 C.3       1 <0>         0.0000
     11 C11         7.1342   -3.0688    0.6654 C.3       1 <0>         0.0000
     12 C12         5.9953   -2.9363    1.6910 C.3       1 <0>         0.0000
     13 C13         2.4245   -2.8999    0.3599 C.3       1 <0>         0.0000
     14 C14         5.3645   -1.9750    4.0244 C.3       1 <0>         0.0000
     15 C15         2.0646   -3.8508   -0.8201 C.3       1 <0>         0.0000
     16 N1          1.6532   -3.9132    2.4277 N.am      1 <0>         0.0000
     17 N2          3.6959   -3.2182    0.9688 N.am      1 <0>         0.0000
     18 N3          6.8025   -3.9159   -0.4486 N.am      1 <0>         0.0000
     19 O1          6.4869   -5.2168   -0.1083 O.3       1 <0>         0.0000
     20 O2          7.0133   -2.4838   -2.2643 O.2       1 <0>         0.0000
     21 O3          4.7482   -1.1914    0.5542 O.2       1 <0>         0.0000
     22 O4          0.4758   -2.1105    1.5728 O.2       1 <0>         0.0000
     23 H1          6.4781   -4.4264   -2.4374 H         1 <0>         0.0000
     24 H2          5.7423   -3.8772    5.0075 H         1 <0>         0.0000
     25 H3          4.4501   -3.9417    3.7978 H         1 <0>         0.0000
     26 H4          4.1642   -3.1925    5.3800 H         1 <0>         0.0000
     27 H5          6.7922   -1.5734    5.6261 H         1 <0>         0.0000
     28 H6          6.2016   -0.1209    4.7985 H         1 <0>         0.0000
     29 H7          5.1564   -0.9697    5.9440 H         1 <0>         0.0000
     30 H8          3.3133   -2.7845   -2.2720 H         1 <0>         0.0000
     31 H9          2.9723   -4.4622   -2.7277 H         1 <0>         0.0000
     32 H10         4.1465   -4.1154   -1.4578 H         1 <0>         0.0000
     33 H11         1.1705   -5.4095    0.4319 H         1 <0>         0.0000
     34 H12         2.8879   -5.6535    0.1281 H         1 <0>         0.0000
     35 H13         1.7055   -5.9859   -1.1517 H         1 <0>         0.0000
     36 H14        -0.0909   -3.4848   -0.7807 H         1 <0>         0.0000
     37 H15         0.4812   -4.1517   -2.3109 H         1 <0>         0.0000
     38 H16         0.7762   -2.4505   -1.9146 H         1 <0>         0.0000
     39 H17         1.1692   -3.5298    4.4230 H         1 <0>         0.0000
     40 H18         0.7992   -5.1745    3.8593 H         1 <0>         0.0000
     41 H19        -0.2198   -3.8109    3.3501 H         1 <0>         0.0000
     42 H20         7.3251   -2.6069    3.3666 H         1 <0>         0.0000
     43 H21         6.7588   -1.1249    2.6110 H         1 <0>         0.0000
     44 H22         7.3992   -2.0872    0.2584 H         1 <0>         0.0000
     45 H23         8.0331   -3.4907    1.1269 H         1 <0>         0.0000
     46 H24         5.7385   -3.9535    2.0094 H         1 <0>         0.0000
     47 H25         2.5279   -1.8729   -0.0129 H         1 <0>         0.0000
     48 H26         4.4913   -1.4577    3.6101 H         1 <0>         0.0000
     49 H27         2.4520   -4.5251    2.2903 H         1 <0>         0.0000
     50 H28         3.8157   -4.1378    1.3829 H         1 <0>         0.0000
@<TRIPOS>BOND
     1    1   18 am
     2    1   20 2
     3    2   12 1
     4    2   17 am
     5    2   21 2
     6    3   13 1
     7    3   16 am
     8    3   22 2
     9    4   14 1
    10    5   14 1
    11    6   15 1
    12    7   15 1
    13    8   15 1
    14    9   16 1
    15   10   12 1
    16   10   14 1
    17   11   12 1
    18   11   18 1
    19   13   15 1
    20   13   17 1
    21   18   19 1
    22    1   23 1
    23    4   24 1
    24    4   25 1
    25    4   26 1
    26    5   27 1
    27    5   28 1
    28    5   29 1
    29    6   30 1
    30    6   31 1
    31    6   32 1
    32    7   33 1
    33    7   34 1
    34    7   35 1
    35    8   36 1
    36    8   37 1
    37    8   38 1
    38    9   39 1
    39    9   40 1
    40    9   41 1
    41   10   42 1
    42   10   43 1
    43   11   44 1
    44   11   45 1
    45   12   46 1
    46   13   47 1
    47   14   48 1
    48   16   49 1
    49   17   50 1
@<TRIPOS>MOLECULE
LIGAND
   50    49     0     0     0
SMALL
NO_CHARGES

@<TRIPOS>ATOM
      1 C1          6.9917   -5.2723   -0.5666 C.2       1 <0>         0.0000
      2 C2          4.7609   -2.3304    1.0158 C.2       1 <0>         0.0000
      3 C3          1.6238   -2.1763    1.4428 C.2       1 <0>         0.0000
      4 C4          4.8998   -3.3220    4.5808 C.3       1 <0>         0.0000
      5 C5          5.9126   -1.1117    5.1647 C.3       1 <0>         0.0000
      6 C6          2.6382   -4.8237   -1.2732 C.3       1 <0>         0.0000
      7 C7          1.4139   -5.1834    0.8654 C.3       1 <0>         0.0000
      8 C8          0.3871   -3.7862   -0.9377 C.3       1 <0>         0.0000
      9 C9          1.1427   -2.2044    3.8715 C.3       1 <0>         0.0000
     10 C10         6.4405   -2.1272    2.9267 C.3       1 <0>         0.0000
     11 C11         7.1342   -3.0688    0.6654 C.3       1 <0>         0.0000
     12 C12         5.9953   -2.9363    1.6910 C.3       1 <0>         0.0000
     13 C13         2.4245   -2.8999    0.3599 C.3       1 <0>         0.0000
     14 C14         5.3645   -1.9750    4.0244 C.3       1 <0>         0.0000
     15 C15         1.7114   -4.1488   -0.2382 C.3       1 <0>         0.0000
     16 N1          1.8198   -2.7177    2.7048 N.am      1 <0>         0.0000
     17 N2          3.6959   -3.2182    0.9688 N.am      1 <0>         0.0000
     18 N3          6.8025   -3.9159   -0.4486 N.am      1 <0>         0.0000
     19 O1          6.2241   -3.2602   -1.5178 O.3       1 <0>         0.0000
     20 O2          6.6955   -5.9652   -1.5354 O.2       1 <0>         0.0000
     21 O3          4.7482   -1.1914    0.5542 O.2       1 <0>         0.0000
     22 O4          0.8744   -1.2316    1.1999 O.2       1 <0>         0.0000
     23 H1          7.4579   -5.7314    0.3231 H         1 <0>         0.0000
     24 H2          5.7423   -3.8772    5.0075 H         1 <0>         0.0000
     25 H3          4.4501   -3.9417    3.7978 H         1 <0>         0.0000
     26 H4          4.1642   -3.1925    5.3800 H         1 <0>         0.0000
     27 H5          6.7922   -1.5734    5.6261 H         1 <0>         0.0000
     28 H6          6.2016   -0.1209    4.7985 H         1 <0>         0.0000
     29 H7          5.1564   -0.9697    5.9440 H         1 <0>         0.0000
     30 H8          2.8872   -4.1345   -2.0879 H         1 <0>         0.0000
     31 H9          2.1738   -5.7124   -1.7140 H         1 <0>         0.0000
     32 H10         3.5794   -5.1449   -0.8119 H         1 <0>         0.0000
     33 H11         0.7565   -4.7621    1.6349 H         1 <0>         0.0000
     34 H12         2.3282   -5.5113    1.3711 H         1 <0>         0.0000
     35 H13         0.9158   -6.0685    0.4541 H         1 <0>         0.0000
     36 H14        -0.3050   -3.3025   -0.2384 H         1 <0>         0.0000
     37 H15        -0.1179   -4.6740   -1.3329 H         1 <0>         0.0000
     38 H16         0.5457   -3.0900   -1.7676 H         1 <0>         0.0000
     39 H17         1.7401   -1.4157    4.3360 H         1 <0>         0.0000
     40 H18         0.9874   -3.0042    4.6007 H         1 <0>         0.0000
     41 H19         0.1698   -1.7909    3.5925 H         1 <0>         0.0000
     42 H20         7.3251   -2.6069    3.3666 H         1 <0>         0.0000
     43 H21         6.7588   -1.1249    2.6110 H         1 <0>         0.0000
     44 H22         7.3992   -2.0872    0.2584 H         1 <0>         0.0000
     45 H23         8.0331   -3.4907    1.1269 H         1 <0>         0.0000
     46 H24         5.7385   -3.9535    2.0094 H         1 <0>         0.0000
     47 H25         2.6549   -2.1876   -0.4426 H         1 <0>         0.0000
     48 H26         4.4913   -1.4577    3.6101 H         1 <0>         0.0000
     49 H27         2.4595   -3.4993    2.8111 H         1 <0>         0.0000
     50 H28         3.8157   -4.1378    1.3829 H         1 <0>         0.0000
@<TRIPOS>BOND
     1    1   18 am
     2    1   20 2
     3    2   12 1
     4    2   17 am
     5    2   21 2
     6    3   13 1
     7    3   16 am
     8    3   22 2
     9    4   14 1
    10    5   14 1
    11    6   15 1
    12    7   15 1
    13    8   15 1
    14    9   16 1
    15   10   12 1
    16   10   14 1
    17   11   12 1
    18   11   18 1
    19   13   15 1
    20   13   17 1
    21   18   19 1
    22    1   23 1
    23    4   24 1
    24    4   25 1
    25    4   26 1
    26    5   27 1
    27    5   28 1
    28    5   29 1
    29    6   30 1
    30    6   31 1
    31    6   32 1
    32    7   33 1
    33    7   34 1
    34    7   35 1
    35    8   36 1
    36    8   37 1
    37    8   38 1
    38    9   39 1
    39    9   40 1
    40    9   41 1
    41   10   42 1
    42   10   43 1
    43   11   44 1
    44   11   45 1
    45   12   46 1
    46   13   47 1
    47   14   48 1
    48   16   49 1
    49   17   50 1
@<TRIPOS>MOLECULE
LIGAND
   50    49     0     0     0
SMALL
NO_CHARGES

@<TRIPOS>ATOM
      1 C1          3.6833   -2.2777    4.3923 C.2       1 <0>         0.0000
      2 C2          4.7609   -2.3304    1.0158 C.2       1 <0>         0.0000
      3 C3          1.3743   -3.6105    1.2141 C.2       1 <0>         0.0000
      4 C4          8.5547   -3.1178   -0.0742 C.3       1 <0>         0.0000
      5 C5          7.6782   -5.2829   -0.9666 C.3       1 <0>         0.0000
      6 C6          2.9144   -2.0789   -1.9851 C.3       1 <0>         0.0000
      7 C7          3.2618   -4.4861   -1.4495 C.3       1 <0>         0.0000
      8 C8          0.9399   -3.5730   -1.6309 C.3       1 <0>         0.0000
      9 C9         -0.8899   -3.3247    2.1744 C.3       1 <0>         0.0000
     10 C10         6.4903   -4.2069    0.9698 C.3       1 <0>         0.0000
     11 C11         5.6912   -3.2135    3.1734 C.3       1 <0>         0.0000
     12 C12         5.9953   -2.9363    1.6910 C.3       1 <0>         0.0000
     13 C13         2.4245   -2.8999    0.3599 C.3       1 <0>         0.0000
     14 C14         7.2936   -3.9469   -0.3237 C.3       1 <0>         0.0000
     15 C15         2.3718   -3.2623   -1.1540 C.3       1 <0>         0.0000
     16 N1          0.2223   -2.8565    1.3827 N.am      1 <0>         0.0000
     17 N2          3.6959   -3.2182    0.9688 N.am      1 <0>         0.0000
     18 N3          4.9199   -2.1744    3.8012 N.am      1 <0>         0.0000
     19 O1          5.5188   -0.9299    3.7952 O.3       1 <0>         0.0000
     20 O2          3.0076   -3.2978    4.4891 O.2       1 <0>         0.0000
     21 O3          4.7482   -1.1914    0.5542 O.2       1 <0>         0.0000
     22 O4          1.5569   -4.7218    1.7089 O.2       1 <0>         0.0000
     23 H1          3.3096   -1.3229    4.8026 H         1 <0>         0.0000
     24 H2          9.2158   -3.6219    0.6392 H         1 <0>         0.0000
     25 H3          8.3079   -2.1320    0.3339 H         1 <0>         0.0000
     26 H4          9.1275   -2.9738   -0.9949 H         1 <0>         0.0000
     27 H5          8.3104   -5.8785   -0.2992 H         1 <0>         0.0000
     28 H6          6.7859   -5.8716   -1.2045 H         1 <0>         0.0000
     29 H7          8.2280   -5.1221   -1.9000 H         1 <0>         0.0000
     30 H8          2.3199   -1.1739   -1.8172 H         1 <0>         0.0000
     31 H9          2.8994   -2.2973   -3.0585 H         1 <0>         0.0000
     32 H10         3.9518   -1.8484   -1.7158 H         1 <0>         0.0000
     33 H11         2.9258   -5.3642   -0.8858 H         1 <0>         0.0000
     34 H12         4.3049   -4.3063   -1.1689 H         1 <0>         0.0000
     35 H13         3.2353   -4.7468   -2.5135 H         1 <0>         0.0000
     36 H14         0.5126   -4.4101   -1.0664 H         1 <0>         0.0000
     37 H15         0.9176   -3.8503   -2.6901 H         1 <0>         0.0000
     38 H16         0.2727   -2.7163   -1.4916 H         1 <0>         0.0000
     39 H17        -1.5882   -3.8849    1.5471 H         1 <0>         0.0000
     40 H18        -1.4189   -2.4783    2.6208 H         1 <0>         0.0000
     41 H19        -0.5348   -3.9781    2.9759 H         1 <0>         0.0000
     42 H20         7.1160   -4.7876    1.6607 H         1 <0>         0.0000
     43 H21         5.6310   -4.8442    0.7228 H         1 <0>         0.0000
     44 H22         5.1267   -4.1459    3.2806 H         1 <0>         0.0000
     45 H23         6.6147   -3.3158    3.7527 H         1 <0>         0.0000
     46 H24         6.7931   -2.1847    1.6686 H         1 <0>         0.0000
     47 H25         2.3043   -1.8161    0.4837 H         1 <0>         0.0000
     48 H26         6.6656   -3.4052   -1.0405 H         1 <0>         0.0000
     49 H27         0.1595   -1.9470    0.9352 H         1 <0>         0.0000
     50 H28         3.8157   -4.1378    1.3829 H         1 <0>         0.0000
@<TRIPOS>BOND
     1    1   18 am
     2    1   20 2
     3    2   12 1
     4    2   17 am
     5    2   21 2
     6    3   13 1
     7    3   16 am
     8    3   22 2
     9    4   14 1
    10    5   14 1
    11    6   15 1
    12    7   15 1
    13    8   15 1
    14    9   16 1
    15   10   12 1
    16   10   14 1
    17   11   12 1
    18   11   18 1
    19   13   15 1
    20   13   17 1
    21   18   19 1
    22    1   23 1
    23    4   24 1
    24    4   25 1
    25    4   26 1
    26    5   27 1
    27    5   28 1
    28    5   29 1
    29    6   30 1
    30    6   31 1
    31    6   32 1
    32    7   33 1
    33    7   34 1
    34    7   35 1
    35    8   36 1
    36    8   37 1
    37    8   38 1
    38    9   39 1
    39    9   40 1
    40    9   41 1
    41   10   42 1
    42   10   43 1
    43   11   44 1
    44   11   45 1
    45   12   46 1
    46   13   47 1
    47   14   48 1
    48   16   49 1
    49   17   50 1
@<TRIPOS>MOLECULE
LIGAND
   50    49     0     0     0
SMALL
NO_CHARGES

@<TRIPOS>ATOM
      1 C1          7.5793   -4.4967    4.2605 C.2       1 <0>         0.0000
      2 C2          4.7609   -2.3304    1.0158 C.2       1 <0>         0.0000
      3 C3          1.4114   -2.9063    1.5049 C.2       1 <0>         0.0000
      4 C4          7.9668   -2.9805   -0.7195 C.3       1 <0>         0.0000
      5 C5          7.2752   -5.3485   -1.1277 C.3       1 <0>         0.0000
      6 C6          2.6765   -3.3019   -2.1277 C.3       1 <0>         0.0000
      7 C7          2.6544   -5.2554   -0.5834 C.3       1 <0>         0.0000
      8 C8          0.5425   -3.9869   -1.0173 C.3       1 <0>         0.0000
      9 C9         -0.0359   -1.4126    2.8483 C.3       1 <0>         0.0000
     10 C10         6.4903   -4.2069    0.9698 C.3       1 <0>         0.0000
     11 C11         5.6912   -3.2135    3.1734 C.3       1 <0>         0.0000
     12 C12         5.9953   -2.9363    1.6910 C.3       1 <0>         0.0000
     13 C13         2.4245   -2.8999    0.3599 C.3       1 <0>         0.0000
     14 C14         6.8518   -4.0083   -0.5189 C.3       1 <0>         0.0000
     15 C15         2.0646   -3.8508   -0.8201 C.3       1 <0>         0.0000
     16 N1          0.9155   -1.6421    1.7876 N.am      1 <0>         0.0000
     17 N2          3.6959   -3.2182    0.9688 N.am      1 <0>         0.0000
     18 N3          6.8729   -3.3510    3.9817 N.am      1 <0>         0.0000
     19 O1          7.3330   -2.1714    4.5335 O.3       1 <0>         0.0000
     20 O2          8.5869   -4.5773    4.9568 O.2       1 <0>         0.0000
     21 O3          4.7482   -1.1914    0.5542 O.2       1 <0>         0.0000
     22 O4          1.0981   -3.9285    2.1133 O.2       1 <0>         0.0000
     23 H1          7.1567   -5.4012    3.7883 H         1 <0>         0.0000
     24 H2          8.8753   -3.2848   -0.1883 H         1 <0>         0.0000
     25 H3          7.6713   -1.9951   -0.3441 H         1 <0>         0.0000
     26 H4          8.2323   -2.8793   -1.7758 H         1 <0>         0.0000
     27 H5          8.1599   -5.7527   -0.6240 H         1 <0>         0.0000
     28 H6          6.4698   -6.0859   -1.0440 H         1 <0>         0.0000
     29 H7          7.5125   -5.2358   -2.1909 H         1 <0>         0.0000
     30 H8          2.2940   -2.2998   -2.3517 H         1 <0>         0.0000
     31 H9          2.4502   -3.9477   -2.9831 H         1 <0>         0.0000
     32 H10         3.7681   -3.2311   -2.0551 H         1 <0>         0.0000
     33 H11         2.2564   -5.7011    0.3358 H         1 <0>         0.0000
     34 H12         3.7440   -5.2254   -0.4780 H         1 <0>         0.0000
     35 H13         2.4105   -5.9315   -1.4105 H         1 <0>         0.0000
     36 H14         0.0636   -4.3749   -0.1106 H         1 <0>         0.0000
     37 H15         0.3004   -4.6763   -1.8330 H         1 <0>         0.0000
     38 H16         0.0759   -3.0219   -1.2405 H         1 <0>         0.0000
     39 H17        -1.0554   -1.5084    2.4658 H         1 <0>         0.0000
     40 H18         0.0924   -0.4080    3.2604 H         1 <0>         0.0000
     41 H19         0.1090   -2.1415    3.6503 H         1 <0>         0.0000
     42 H20         7.3727   -4.5944    1.4964 H         1 <0>         0.0000
     43 H21         5.7222   -4.9884    1.0394 H         1 <0>         0.0000
     44 H22         5.0986   -2.3982    3.6018 H         1 <0>         0.0000
     45 H23         5.1177   -4.1388    3.2917 H         1 <0>         0.0000
     46 H24         6.7931   -2.1847    1.6686 H         1 <0>         0.0000
     47 H25         2.5279   -1.8729   -0.0129 H         1 <0>         0.0000
     48 H26         5.9671   -3.6628   -1.0661 H         1 <0>         0.0000
     49 H27         1.2316   -0.8537    1.2310 H         1 <0>         0.0000
     50 H28         3.8157   -4.1378    1.3829 H         1 <0>         0.0000
@<TRIPOS>BOND
     1    1   18 am
     2    1   20 2
     3    2   12 1
     4    2   17 am
     5    2   21 2
     6    3   13 1
     7    3   16 am
     8    3   22 2
     9    4   14 1
    10    5   14 1
    11    6   15 1
    12    7   15 1
    13    8   15 1
    14    9   16 1
    15   10   12 1
    16   10   14 1
    17   11   12 1
    18   11   18 1
    19   13   15 1
    20   13   17 1
    21   18   19 1
    22    1   23 1
    23    4   24 1
    24    4   25 1
    25    4   26 1
    26    5   27 1
    27    5   28 1
    28    5   29 1
    29    6   30 1
    30    6   31 1
    31    6   32 1
    32    7   33 1
    33    7   34 1
    34    7   35 1
    35    8   36 1
    36    8   37 1
    37    8   38 1
    38    9   39 1
    39    9   40 1
    40    9   41 1
    41   10   42 1
    42   10   43 1
    43   11   44 1
    44   11   45 1
    45   12   46 1
    46   13   47 1
    47   14   48 1
    48   16   49 1
    49   17   50 1
@<TRIPOS>MOLECULE
LIGAND
   50    49     0     0     0
SMALL
NO_CHARGES

@<TRIPOS>ATOM
      1 C1          6.4496   -5.2442   -0.4265 C.2       1 <0>         0.0000
      2 C2          4.7609   -2.3304    1.0158 C.2       1 <0>         0.0000
      3 C3          1.4114   -2.9063    1.5049 C.2       1 <0>         0.0000
      4 C4          4.8998   -3.3220    4.5808 C.3       1 <0>         0.0000
      5 C5          5.9126   -1.1117    5.1647 C.3       1 <0>         0.0000
      6 C6          3.1857   -3.8003   -1.8813 C.3       1 <0>         0.0000
      7 C7          1.9543   -5.3076   -0.3278 C.3       1 <0>         0.0000
      8 C8          0.7370   -3.4626   -1.4991 C.3       1 <0>         0.0000
      9 C9          0.8046   -4.1182    3.5770 C.3       1 <0>         0.0000
     10 C10         6.4405   -2.1272    2.9267 C.3       1 <0>         0.0000
     11 C11         7.1342   -3.0688    0.6654 C.3       1 <0>         0.0000
     12 C12         5.9953   -2.9363    1.6910 C.3       1 <0>         0.0000
     13 C13         2.4245   -2.8999    0.3599 C.3       1 <0>         0.0000
     14 C14         5.3645   -1.9750    4.0244 C.3       1 <0>         0.0000
     15 C15         2.0646   -3.8508   -0.8201 C.3       1 <0>         0.0000
     16 N1          1.6532   -3.9132    2.4277 N.am      1 <0>         0.0000
     17 N2          3.6959   -3.2182    0.9688 N.am      1 <0>         0.0000
     18 N3          6.8025   -3.9159   -0.4486 N.am      1 <0>         0.0000
     19 O1          6.8526   -3.2928   -1.6802 O.3       1 <0>         0.0000
     20 O2          6.3544   -5.9537    0.5706 O.2       1 <0>         0.0000
     21 O3          4.7482   -1.1914    0.5542 O.2       1 <0>         0.0000
     22 O4          0.4758   -2.1105    1.5728 O.2       1 <0>         0.0000
     23 H1          6.2432   -5.6623   -1.4276 H         1 <0>         0.0000
     24 H2          5.7423   -3.8772    5.0075 H         1 <0>         0.0000
     25 H3          4.4501   -3.9417    3.7978 H         1 <0>         0.0000
     26 H4          4.1642   -3.1925    5.3800 H         1 <0>         0.0000
     27 H5          6.7922   -1.5734    5.6261 H         1 <0>         0.0000
     28 H6          6.2016   -0.1209    4.7985 H         1 <0>         0.0000
     29 H7          5.1564   -0.9697    5.9440 H         1 <0>         0.0000
     30 H8          3.3133   -2.7845   -2.2720 H         1 <0>         0.0000
     31 H9          2.9723   -4.4622   -2.7277 H         1 <0>         0.0000
     32 H10         4.1465   -4.1154   -1.4578 H         1 <0>         0.0000
     33 H11         1.1705   -5.4095    0.4319 H         1 <0>         0.0000
     34 H12         2.8879   -5.6535    0.1281 H         1 <0>         0.0000
     35 H13         1.7055   -5.9859   -1.1517 H         1 <0>         0.0000
     36 H14        -0.0909   -3.4848   -0.7807 H         1 <0>         0.0000
     37 H15         0.4812   -4.1517   -2.3109 H         1 <0>         0.0000
     38 H16         0.7762   -2.4505   -1.9146 H         1 <0>         0.0000
     39 H17         1.1692   -3.5298    4.4230 H         1 <0>         0.0000
     40 H18         0.7992   -5.1745    3.8593 H         1 <0>         0.0000
     41 H19        -0.2198   -3.8109    3.3501 H         1 <0>         0.0000
     42 H20         7.3251   -2.6069    3.3666 H         1 <0>         0.0000
     43 H21         6.7588   -1.1249    2.6110 H         1 <0>         0.0000
     44 H22         7.3992   -2.0872    0.2584 H         1 <0>         0.0000
     45 H23         8.0331   -3.4907    1.1269 H         1 <0>         0.0000
     46 H24         5.7385   -3.9535    2.0094 H         1 <0>         0.0000
     47 H25         2.5279   -1.8729   -0.0129 H         1 <0>         0.0000
     48 H26         4.4913   -1.4577    3.6101 H         1 <0>         0.0000
     49 H27         2.4520   -4.5251    2.2903 H         1 <0>         0.0000
     50 H28         3.8157   -4.1378    1.3829 H         1 <0>         0.0000
@<TRIPOS>BOND
     1    1   18 am
     2    1   20 2
     3    2   12 1
     4    2   17 am
     5    2   21 2
     6    3   13 1
     7    3   16 am
     8    3   22 2
     9    4   14 1
    10    5   14 1
    11    6   15 1
    12    7   15 1
    13    8   15 1
    14    9   16 1
    15   10   12 1
    16   10   14 1
    17   11   12 1
    18   11   18 1
    19   13   15 1
    20   13   17 1
    21   18   19 1
    22    1   23 1
    23    4   24 1
    24    4   25 1
    25    4   26 1
    26    5   27 1
    27    5   28 1
    28    5   29 1
    29    6   30 1
    30    6   31 1
    31    6   32 1
    32    7   33 1
    33    7   34 1
    34    7   35 1
    35    8   36 1
    36    8   37 1
    37    8   38 1
    38    9   39 1
    39    9   40 1
    40    9   41 1
    41   10   42 1
    42   10   43 1
    43   11   44 1
    44   11   45 1
    45   12   46 1
    46   13   47 1
    47   14   48 1
    48   16   49 1
    49   17   50 1
@<TRIPOS>MOLECULE
LIGAND
   50    49     0     0     0
SMALL
NO_CHARGES

@<TRIPOS>ATOM
      1 C1          8.0812   -5.2529    2.2381 C.2       1 <0>         0.0000
      2 C2          4.7609   -2.3304    1.0158 C.2       1 <0>         0.0000
      3 C3          1.6238   -2.1763    1.4428 C.2       1 <0>         0.0000
      4 C4          6.2068   -2.5045    4.7682 C.3       1 <0>         0.0000
      5 C5          7.2536   -0.2835    4.2952 C.3       1 <0>         0.0000
      6 C6          2.6382   -4.8237   -1.2732 C.3       1 <0>         0.0000
      7 C7          1.4139   -5.1834    0.8654 C.3       1 <0>         0.0000
      8 C8          0.3871   -3.7862   -0.9377 C.3       1 <0>         0.0000
      9 C9          1.1427   -2.2044    3.8715 C.3       1 <0>         0.0000
     10 C10         6.8665   -1.8668    2.3816 C.3       1 <0>         0.0000
     11 C11         6.8055   -3.7427    0.6616 C.3       1 <0>         0.0000
     12 C12         5.9953   -2.9363    1.6910 C.3       1 <0>         0.0000
     13 C13         2.4245   -2.8999    0.3599 C.3       1 <0>         0.0000
     14 C14         6.3308   -1.3748    3.7443 C.3       1 <0>         0.0000
     15 C15         1.7114   -4.1488   -0.2382 C.3       1 <0>         0.0000
     16 N1          1.8198   -2.7177    2.7048 N.am      1 <0>         0.0000
     17 N2          3.6959   -3.2182    0.9688 N.am      1 <0>         0.0000
     18 N3          7.9912   -4.3422    1.2125 N.am      1 <0>         0.0000
     19 O1          9.1704   -3.9351    0.6197 O.3       1 <0>         0.0000
     20 O2          7.1439   -5.7230    2.8761 O.2       1 <0>         0.0000
     21 O3          4.7482   -1.1914    0.5542 O.2       1 <0>         0.0000
     22 O4          0.8744   -1.2316    1.1999 O.2       1 <0>         0.0000
     23 H1          9.1177   -5.5563    2.4686 H         1 <0>         0.0000
     24 H2          7.1779   -2.9820    4.9387 H         1 <0>         0.0000
     25 H3          5.5078   -3.2753    4.4268 H         1 <0>         0.0000
     26 H4          5.8592   -2.1311    5.7358 H         1 <0>         0.0000
     27 H5          8.2679   -0.6642    4.4570 H         1 <0>         0.0000
     28 H6          7.3145    0.5617    3.6015 H         1 <0>         0.0000
     29 H7          6.8785    0.0981    5.2508 H         1 <0>         0.0000
     30 H8          2.8872   -4.1345   -2.0879 H         1 <0>         0.0000
     31 H9          2.1738   -5.7124   -1.7140 H         1 <0>         0.0000
     32 H10         3.5794   -5.1449   -0.8119 H         1 <0>         0.0000
     33 H11         0.7565   -4.7621    1.6349 H         1 <0>         0.0000
     34 H12         2.3282   -5.5113    1.3711 H         1 <0>         0.0000
     35 H13         0.9158   -6.0685    0.4541 H         1 <0>         0.0000
     36 H14        -0.3050   -3.3025   -0.2384 H         1 <0>         0.0000
     37 H15        -0.1179   -4.6740   -1.3329 H         1 <0>         0.0000
     38 H16         0.5457   -3.0900   -1.7676 H         1 <0>         0.0000
     39 H17         1.7401   -1.4157    4.3360 H         1 <0>         0.0000
     40 H18         0.9874   -3.0042    4.6007 H         1 <0>         0.0000
     41 H19         0.1698   -1.7909    3.5925 H         1 <0>         0.0000
     42 H20         7.8774   -2.2707    2.5271 H         1 <0>         0.0000
     43 H21         6.9742   -0.9994    1.7170 H         1 <0>         0.0000
     44 H22         6.1970   -4.5521    0.2444 H         1 <0>         0.0000
     45 H23         7.1292   -3.1080   -0.1699 H         1 <0>         0.0000
     46 H24         5.6479   -3.6501    2.4472 H         1 <0>         0.0000
     47 H25         2.6549   -2.1876   -0.4426 H         1 <0>         0.0000
     48 H26         5.3389   -0.9289    3.6068 H         1 <0>         0.0000
     49 H27         2.4595   -3.4993    2.8111 H         1 <0>         0.0000
     50 H28         3.8157   -4.1378    1.3829 H         1 <0>         0.0000
@<TRIPOS>BOND
     1    1   18 am
     2    1   20 2
     3    2   12 1
     4    2   17 am
     5    2   21 2
     6    3   13 1
     7    3   16 am
     8    3   22 2
     9    4   14 1
    10    5   14 1
    11    6   15 1
    12    7   15 1
    13    8   15 1
    14    9   16 1
    15   10   12 1
    16   10   14 1
    17   11   12 1
    18   11   18 1
    19   13   15 1
    20   13   17 1
    21   18   19 1
    22    1   23 1
    23    4   24 1
    24    4   25 1
    25    4   26 1
    26    5   27 1
    27    5   28 1
    28    5   29 1
    29    6   30 1
    30    6   31 1
    31    6   32 1
    32    7   33 1
    33    7   34 1
    34    7   35 1
    35    8   36 1
    36    8   37 1
    37    8   38 1
    38    9   39 1
    39    9   40 1
    40    9   41 1
    41   10   42 1
    42   10   43 1
    43   11   44 1
    44   11   45 1
    45   12   46 1
    46   13   47 1
    47   14   48 1
    48   16   49 1
    49   17   50 1
@<TRIPOS>MOLECULE
LIGAND
   50    49     0     0     0
SMALL
NO_CHARGES

@<TRIPOS>ATOM
      1 C1          7.4494   -6.0057    1.5877 C.2       1 <0>         0.0000
      2 C2          4.7609   -2.3304    1.0158 C.2       1 <0>         0.0000
      3 C3          1.3743   -3.6105    1.2141 C.2       1 <0>         0.0000
      4 C4          5.5916   -1.8934    4.5978 C.3       1 <0>         0.0000
      5 C5          7.0929    0.0222    4.0244 C.3       1 <0>         0.0000
      6 C6          3.5112   -2.5312   -1.8976 C.3       1 <0>         0.0000
      7 C7          2.5798   -4.7765   -1.3563 C.3       1 <0>         0.0000
      8 C8          1.0336   -2.8618   -1.8044 C.3       1 <0>         0.0000
      9 C9          0.6347   -3.9155    3.5573 C.3       1 <0>         0.0000
     10 C10         6.8665   -1.8668    2.3816 C.3       1 <0>         0.0000
     11 C11         6.8055   -3.7427    0.6616 C.3       1 <0>         0.0000
     12 C12         5.9953   -2.9363    1.6910 C.3       1 <0>         0.0000
     13 C13         2.4245   -2.8999    0.3599 C.3       1 <0>         0.0000
     14 C14         6.1374   -1.0321    3.4575 C.3       1 <0>         0.0000
     15 C15         2.3718   -3.2623   -1.1540 C.3       1 <0>         0.0000
     16 N1          1.5064   -3.3313    2.5663 N.am      1 <0>         0.0000
     17 N2          3.6959   -3.2182    0.9688 N.am      1 <0>         0.0000
     18 N3          7.7018   -4.6947    1.2608 N.am      1 <0>         0.0000
     19 O1          8.9648   -4.2050    1.5307 O.3       1 <0>         0.0000
     20 O2          6.3911   -6.6048    1.4210 O.2       1 <0>         0.0000
     21 O3          4.7482   -1.1914    0.5542 O.2       1 <0>         0.0000
     22 O4          0.5249   -4.3627    0.7389 O.2       1 <0>         0.0000
     23 H1          8.3147   -6.5219    2.0397 H         1 <0>         0.0000
     24 H2          6.4006   -2.4456    5.0885 H         1 <0>         0.0000
     25 H3          4.8609   -2.6219    4.2310 H         1 <0>         0.0000
     26 H4          5.1097   -1.2817    5.3659 H         1 <0>         0.0000
     27 H5          7.9623   -0.4436    4.5008 H         1 <0>         0.0000
     28 H6          7.4545    0.6861    3.2321 H         1 <0>         0.0000
     29 H7          6.5886    0.6429    4.7727 H         1 <0>         0.0000
     30 H8          3.4182   -1.4447   -1.7906 H         1 <0>         0.0000
     31 H9          3.5120   -2.7653   -2.9677 H         1 <0>         0.0000
     32 H10         4.4918   -2.8203   -1.5020 H         1 <0>         0.0000
     33 H11         1.7979   -5.3538   -0.8491 H         1 <0>         0.0000
     34 H12         3.5395   -5.1121   -0.9494 H         1 <0>         0.0000
     35 H13         2.5489   -5.0416   -2.4191 H         1 <0>         0.0000
     36 H14         0.1926   -3.3589   -1.3070 H         1 <0>         0.0000
     37 H15         0.9978   -3.1431   -2.8622 H         1 <0>         0.0000
     38 H16         0.8573   -1.7835   -1.7352 H         1 <0>         0.0000
     39 H17        -0.2373   -3.2755    3.7147 H         1 <0>         0.0000
     40 H18         1.1644   -4.0284    4.5071 H         1 <0>         0.0000
     41 H19         0.2935   -4.9003    3.2271 H         1 <0>         0.0000
     42 H20         7.7322   -2.3581    2.8457 H         1 <0>         0.0000
     43 H21         7.2705   -1.1813    1.6250 H         1 <0>         0.0000
     44 H22         6.1354   -4.3010   -0.0008 H         1 <0>         0.0000
     45 H23         7.4165   -3.0830    0.0367 H         1 <0>         0.0000
     46 H24         5.6479   -3.6501    2.4472 H         1 <0>         0.0000
     47 H25         2.3043   -1.8161    0.4837 H         1 <0>         0.0000
     48 H26         5.2955   -0.5008    2.9986 H         1 <0>         0.0000
     49 H27         2.2391   -2.6962    2.8684 H         1 <0>         0.0000
     50 H28         3.8157   -4.1378    1.3829 H         1 <0>         0.0000
@<TRIPOS>BOND
     1    1   18 am
     2    1   20 2
     3    2   12 1
     4    2   17 am
     5    2   21 2
     6    3   13 1
     7    3   16 am
     8    3   22 2
     9    4   14 1
    10    5   14 1
    11    6   15 1
    12    7   15 1
    13    8   15 1
    14    9   16 1
    15   10   12 1
    16   10   14 1
    17   11   12 1
    18   11   18 1
    19   13   15 1
    20   13   17 1
    21   18   19 1
    22    1   23 1
    23    4   24 1
    24    4   25 1
    25    4   26 1
    26    5   27 1
    27    5   28 1
    28    5   29 1
    29    6   30 1
    30    6   31 1
    31    6   32 1
    32    7   33 1
    33    7   34 1
    34    7   35 1
    35    8   36 1
    36    8   37 1
    37    8   38 1
    38    9   39 1
    39    9   40 1
    40    9   41 1
    41   10   42 1
    42   10   43 1
    43   11   44 1
    44   11   45 1
    45   12   46 1
    46   13   47 1
    47   14   48 1
    48   16   49 1
    49   17   50 1
@<TRIPOS>MOLECULE
LIGAND
   50    49     0     0     0
SMALL
NO_CHARGES

@<TRIPOS>ATOM
      1 C1          8.3562   -4.2249   -0.3854 C.2       1 <0>         0.0000
      2 C2          4.7609   -2.3304    1.0158 C.2       1 <0>         0.0000
      3 C3          1.4114   -2.9063    1.5049 C.2       1 <0>         0.0000
      4 C4          5.4286   -5.0551    3.9022 C.3       1 <0>         0.0000
      5 C5          5.1681   -3.1669    5.5205 C.3       1 <0>         0.0000
      6 C6          3.1857   -3.8003   -1.8813 C.3       1 <0>         0.0000
      7 C7          1.9543   -5.3076   -0.3278 C.3       1 <0>         0.0000
      8 C8          0.7370   -3.4626   -1.4991 C.3       1 <0>         0.0000
      9 C9          1.0123   -1.9958    3.7725 C.3       1 <0>         0.0000
     10 C10         6.0212   -2.6662    3.2096 C.3       1 <0>         0.0000
     11 C11         7.2695   -2.4142    1.0053 C.3       1 <0>         0.0000
     12 C12         5.9953   -2.9363    1.6910 C.3       1 <0>         0.0000
     13 C13         2.4245   -2.8999    0.3599 C.3       1 <0>         0.0000
     14 C14         5.0884   -3.5706    4.0452 C.3       1 <0>         0.0000
     15 C15         2.0646   -3.8508   -0.8201 C.3       1 <0>         0.0000
     16 N1          1.8071   -2.1159    2.5738 N.am      1 <0>         0.0000
     17 N2          3.6959   -3.2182    0.9688 N.am      1 <0>         0.0000
     18 N3          7.5808   -3.1022   -0.2189 N.am      1 <0>         0.0000
     19 O1          7.0189   -2.5452   -1.3509 O.3       1 <0>         0.0000
     20 O2          8.9304   -4.8491    0.5019 O.2       1 <0>         0.0000
     21 O3          4.7482   -1.1914    0.5542 O.2       1 <0>         0.0000
     22 O4          0.3728   -3.5647    1.4736 O.2       1 <0>         0.0000
     23 H1          8.4365   -4.5533   -1.4368 H         1 <0>         0.0000
     24 H2          6.4596   -5.2491    4.2175 H         1 <0>         0.0000
     25 H3          5.3256   -5.3883    2.8641 H         1 <0>         0.0000
     26 H4          4.7804   -5.6761    4.5273 H         1 <0>         0.0000
     27 H5          6.1838   -3.2884    5.9121 H         1 <0>         0.0000
     28 H6          4.8754   -2.1200    5.6540 H         1 <0>         0.0000
     29 H7          4.4947   -3.7797    6.1290 H         1 <0>         0.0000
     30 H8          3.3133   -2.7845   -2.2720 H         1 <0>         0.0000
     31 H9          2.9723   -4.4622   -2.7277 H         1 <0>         0.0000
     32 H10         4.1465   -4.1154   -1.4578 H         1 <0>         0.0000
     33 H11         1.1705   -5.4095    0.4319 H         1 <0>         0.0000
     34 H12         2.8879   -5.6535    0.1281 H         1 <0>         0.0000
     35 H13         1.7055   -5.9859   -1.1517 H         1 <0>         0.0000
     36 H14        -0.0909   -3.4848   -0.7807 H         1 <0>         0.0000
     37 H15         0.4812   -4.1517   -2.3109 H         1 <0>         0.0000
     38 H16         0.7762   -2.4505   -1.9146 H         1 <0>         0.0000
     39 H17         0.3100   -1.1637    3.6759 H         1 <0>         0.0000
     40 H18         1.6568   -1.8137    4.6368 H         1 <0>         0.0000
     41 H19         0.4467   -2.9155    3.9448 H         1 <0>         0.0000
     42 H20         7.0493   -2.7891    3.5757 H         1 <0>         0.0000
     43 H21         5.7503   -1.6191    3.3985 H         1 <0>         0.0000
     44 H22         7.1657   -1.3514    0.7623 H         1 <0>         0.0000
     45 H23         8.1413   -2.5219    1.6590 H         1 <0>         0.0000
     46 H24         5.9704   -4.0198    1.5260 H         1 <0>         0.0000
     47 H25         2.5279   -1.8729   -0.0129 H         1 <0>         0.0000
     48 H26         4.0519   -3.4254    3.7195 H         1 <0>         0.0000
     49 H27         2.6832   -1.6060    2.5111 H         1 <0>         0.0000
     50 H28         3.8157   -4.1378    1.3829 H         1 <0>         0.0000
@<TRIPOS>BOND
     1    1   18 am
     2    1   20 2
     3    2   12 1
     4    2   17 am
     5    2   21 2
     6    3   13 1
     7    3   16 am
     8    3   22 2
     9    4   14 1
    10    5   14 1
    11    6   15 1
    12    7   15 1
    13    8   15 1
    14    9   16 1
    15   10   12 1
    16   10   14 1
    17   11   12 1
    18   11   18 1
    19   13   15 1
    20   13   17 1
    21   18   19 1
    22    1   23 1
    23    4   24 1
    24    4   25 1
    25    4   26 1
    26    5   27 1
    27    5   28 1
    28    5   29 1
    29    6   30 1
    30    6   31 1
    31    6   32 1
    32    7   33 1
    33    7   34 1
    34    7   35 1
    35    8   36 1
    36    8   37 1
    37    8   38 1
    38    9   39 1
    39    9   40 1
    40    9   41 1
    41   10   42 1
    42   10   43 1
    43   11   44 1
    44   11   45 1
    45   12   46 1
    46   13   47 1
    47   14   48 1
    48   16   49 1
    49   17   50 1
@<TRIPOS>MOLECULE
LIGAND
   50    49     0     0     0
SMALL
NO_CHARGES

@<TRIPOS>ATOM
      1 C1          8.0539   -3.2639    4.0726 C.2       1 <0>         0.0000
      2 C2          4.7609   -2.3304    1.0158 C.2       1 <0>         0.0000
      3 C3          1.6238   -2.1763    1.4428 C.2       1 <0>         0.0000
      4 C4          8.5547   -3.1178   -0.0742 C.3       1 <0>         0.0000
      5 C5          7.6782   -5.2829   -0.9666 C.3       1 <0>         0.0000
      6 C6          2.6382   -4.8237   -1.2732 C.3       1 <0>         0.0000
      7 C7          1.4139   -5.1834    0.8654 C.3       1 <0>         0.0000
      8 C8          0.3871   -3.7862   -0.9377 C.3       1 <0>         0.0000
      9 C9          0.7109    0.0436    2.0502 C.3       1 <0>         0.0000
     10 C10         6.4903   -4.2069    0.9698 C.3       1 <0>         0.0000
     11 C11         5.6912   -3.2135    3.1734 C.3       1 <0>         0.0000
     12 C12         5.9953   -2.9363    1.6910 C.3       1 <0>         0.0000
     13 C13         2.4245   -2.8999    0.3599 C.3       1 <0>         0.0000
     14 C14         7.2936   -3.9469   -0.3237 C.3       1 <0>         0.0000
     15 C15         1.7114   -4.1488   -0.2382 C.3       1 <0>         0.0000
     16 N1          1.4216   -0.8351    1.1525 N.am      1 <0>         0.0000
     17 N2          3.6959   -3.2182    0.9688 N.am      1 <0>         0.0000
     18 N3          6.7994   -3.7930    3.8839 N.am      1 <0>         0.0000
     19 O1          6.5444   -5.0339    4.4343 O.3       1 <0>         0.0000
     20 O2          8.4549   -2.1805    3.6579 O.2       1 <0>         0.0000
     21 O3          4.7482   -1.1914    0.5542 O.2       1 <0>         0.0000
     22 O4          1.2284   -2.7340    2.4655 O.2       1 <0>         0.0000
     23 H1          8.7240   -3.9167    4.6595 H         1 <0>         0.0000
     24 H2          9.2158   -3.6219    0.6392 H         1 <0>         0.0000
     25 H3          8.3079   -2.1320    0.3339 H         1 <0>         0.0000
     26 H4          9.1275   -2.9738   -0.9949 H         1 <0>         0.0000
     27 H5          8.3104   -5.8785   -0.2992 H         1 <0>         0.0000
     28 H6          6.7859   -5.8716   -1.2045 H         1 <0>         0.0000
     29 H7          8.2280   -5.1221   -1.9000 H         1 <0>         0.0000
     30 H8          2.8872   -4.1345   -2.0879 H         1 <0>         0.0000
     31 H9          2.1738   -5.7124   -1.7140 H         1 <0>         0.0000
     32 H10         3.5794   -5.1449   -0.8119 H         1 <0>         0.0000
     33 H11         0.7565   -4.7621    1.6349 H         1 <0>         0.0000
     34 H12         2.3282   -5.5113    1.3711 H         1 <0>         0.0000
     35 H13         0.9158   -6.0685    0.4541 H         1 <0>         0.0000
     36 H14        -0.3050   -3.3025   -0.2384 H         1 <0>         0.0000
     37 H15        -0.1179   -4.6740   -1.3329 H         1 <0>         0.0000
     38 H16         0.5457   -3.0900   -1.7676 H         1 <0>         0.0000
     39 H17        -0.3565    0.0379    1.8148 H         1 <0>         0.0000
     40 H18         1.0868    1.0659    1.9547 H         1 <0>         0.0000
     41 H19         0.8449   -0.2838    3.0846 H         1 <0>         0.0000
     42 H20         7.1160   -4.7876    1.6607 H         1 <0>         0.0000
     43 H21         5.6310   -4.8442    0.7228 H         1 <0>         0.0000
     44 H22         5.4249   -2.2852    3.6898 H         1 <0>         0.0000
     45 H23         4.8500   -3.9063    3.2803 H         1 <0>         0.0000
     46 H24         6.7931   -2.1847    1.6686 H         1 <0>         0.0000
     47 H25         2.6549   -2.1876   -0.4426 H         1 <0>         0.0000
     48 H26         6.6656   -3.4052   -1.0405 H         1 <0>         0.0000
     49 H27         1.7849   -0.4599    0.2815 H         1 <0>         0.0000
     50 H28         3.8157   -4.1378    1.3829 H         1 <0>         0.0000
@<TRIPOS>BOND
     1    1   18 am
     2    1   20 2
     3    2   12 1
     4    2   17 am
     5    2   21 2
     6    3   13 1
     7    3   16 am
     8    3   22 2
     9    4   14 1
    10    5   14 1
    11    6   15 1
    12    7   15 1
    13    8   15 1
    14    9   16 1
    15   10   12 1
    16   10   14 1
    17   11   12 1
    18   11   18 1
    19   13   15 1
    20   13   17 1
    21   18   19 1
    22    1   23 1
    23    4   24 1
    24    4   25 1
    25    4   26 1
    26    5   27 1
    27    5   28 1
    28    5   29 1
    29    6   30 1
    30    6   31 1
    31    6   32 1
    32    7   33 1
    33    7   34 1
    34    7   35 1
    35    8   36 1
    36    8   37 1
    37    8   38 1
    38    9   39 1
    39    9   40 1
    40    9   41 1
    41   10   42 1
    42   10   43 1
    43   11   44 1
    44   11   45 1
    45   12   46 1
    46   13   47 1
    47   14   48 1
    48   16   49 1
    49   17   50 1
@<TRIPOS>MOLECULE
LIGAND
   50    49     0     0     0
SMALL
NO_CHARGES

@<TRIPOS>ATOM
      1 C1          9.2970   -4.1372    0.8354 C.2       1 <0>         0.0000
      2 C2          4.7609   -2.3304    1.0158 C.2       1 <0>         0.0000
      3 C3          1.6238   -2.1763    1.4428 C.2       1 <0>         0.0000
      4 C4          5.5916   -1.8934    4.5978 C.3       1 <0>         0.0000
      5 C5          7.0929    0.0222    4.0244 C.3       1 <0>         0.0000
      6 C6          2.6382   -4.8237   -1.2732 C.3       1 <0>         0.0000
      7 C7          1.4139   -5.1834    0.8654 C.3       1 <0>         0.0000
      8 C8          0.3871   -3.7862   -0.9377 C.3       1 <0>         0.0000
      9 C9          1.3383    0.0348    2.5199 C.3       1 <0>         0.0000
     10 C10         6.8665   -1.8668    2.3816 C.3       1 <0>         0.0000
     11 C11         6.8055   -3.7427    0.6616 C.3       1 <0>         0.0000
     12 C12         5.9953   -2.9363    1.6910 C.3       1 <0>         0.0000
     13 C13         2.4245   -2.8999    0.3599 C.3       1 <0>         0.0000
     14 C14         6.1374   -1.0321    3.4575 C.3       1 <0>         0.0000
     15 C15         1.7114   -4.1488   -0.2382 C.3       1 <0>         0.0000
     16 N1          1.9549   -0.8333    1.5455 N.am      1 <0>         0.0000
     17 N2          3.6959   -3.2182    0.9688 N.am      1 <0>         0.0000
     18 N3          7.9912   -4.3422    1.2125 N.am      1 <0>         0.0000
     19 O1          7.7606   -5.2290    2.2460 O.3       1 <0>         0.0000
     20 O2          9.6863   -3.3900   -0.0572 O.2       1 <0>         0.0000
     21 O3          4.7482   -1.1914    0.5542 O.2       1 <0>         0.0000
     22 O4          0.7950   -2.7447    2.1522 O.2       1 <0>         0.0000
     23 H1         10.0234   -4.7251    1.4239 H         1 <0>         0.0000
     24 H2          6.4006   -2.4456    5.0885 H         1 <0>         0.0000
     25 H3          4.8609   -2.6219    4.2310 H         1 <0>         0.0000
     26 H4          5.1097   -1.2817    5.3659 H         1 <0>         0.0000
     27 H5          7.9623   -0.4436    4.5008 H         1 <0>         0.0000
     28 H6          7.4545    0.6861    3.2321 H         1 <0>         0.0000
     29 H7          6.5886    0.6429    4.7727 H         1 <0>         0.0000
     30 H8          2.8872   -4.1345   -2.0879 H         1 <0>         0.0000
     31 H9          2.1738   -5.7124   -1.7140 H         1 <0>         0.0000
     32 H10         3.5794   -5.1449   -0.8119 H         1 <0>         0.0000
     33 H11         0.7565   -4.7621    1.6349 H         1 <0>         0.0000
     34 H12         2.3282   -5.5113    1.3711 H         1 <0>         0.0000
     35 H13         0.9158   -6.0685    0.4541 H         1 <0>         0.0000
     36 H14        -0.3050   -3.3025   -0.2384 H         1 <0>         0.0000
     37 H15        -0.1179   -4.6740   -1.3329 H         1 <0>         0.0000
     38 H16         0.5457   -3.0900   -1.7676 H         1 <0>         0.0000
     39 H17         0.4402    0.4941    2.0989 H         1 <0>         0.0000
     40 H18         2.0331    0.8259    2.8147 H         1 <0>         0.0000
     41 H19         1.0580   -0.5350    3.4100 H         1 <0>         0.0000
     42 H20         7.7322   -2.3581    2.8457 H         1 <0>         0.0000
     43 H21         7.2705   -1.1813    1.6250 H         1 <0>         0.0000
     44 H22         6.1970   -4.5521    0.2444 H         1 <0>         0.0000
     45 H23         7.1292   -3.1080   -0.1699 H         1 <0>         0.0000
     46 H24         5.6479   -3.6501    2.4472 H         1 <0>         0.0000
     47 H25         2.6549   -2.1876   -0.4426 H         1 <0>         0.0000
     48 H26         5.2955   -0.5008    2.9986 H         1 <0>         0.0000
     49 H27         2.6527   -0.4488    0.9157 H         1 <0>         0.0000
     50 H28         3.8157   -4.1378    1.3829 H         1 <0>         0.0000
@<TRIPOS>BOND
     1    1   18 am
     2    1   20 2
     3    2   12 1
     4    2   17 am
     5    2   21 2
     6    3   13 1
     7    3   16 am
     8    3   22 2
     9    4   14 1
    10    5   14 1
    11    6   15 1
    12    7   15 1
    13    8   15 1
    14    9   16 1
    15   10   12 1
    16   10   14 1
    17   11   12 1
    18   11   18 1
    19   13   15 1
    20   13   17 1
    21   18   19 1
    22    1   23 1
    23    4   24 1
    24    4   25 1
    25    4   26 1
    26    5   27 1
    27    5   28 1
    28    5   29 1
    29    6   30 1
    30    6   31 1
    31    6   32 1
    32    7   33 1
    33    7   34 1
    34    7   35 1
    35    8   36 1
    36    8   37 1
    37    8   38 1
    38    9   39 1
    39    9   40 1
    40    9   41 1
    41   10   42 1
    42   10   43 1
    43   11   44 1
    44   11   45 1
    45   12   46 1
    46   13   47 1
    47   14   48 1
    48   16   49 1
    49   17   50 1
@<TRIPOS>MOLECULE
LIGAND
   50    49     0     0     0
SMALL
NO_CHARGES

@<TRIPOS>ATOM
      1 C1          8.4672   -5.5698    1.5183 C.2       1 <0>         0.0000
      2 C2          4.7609   -2.3304    1.0158 C.2       1 <0>         0.0000
      3 C3          1.4114   -2.9063    1.5049 C.2       1 <0>         0.0000
      4 C4          7.0285   -1.4411    4.2202 C.3       1 <0>         0.0000
      5 C5          8.3048    0.0740    2.6945 C.3       1 <0>         0.0000
      6 C6          3.1857   -3.8003   -1.8813 C.3       1 <0>         0.0000
      7 C7          1.9543   -5.3076   -0.3278 C.3       1 <0>         0.0000
      8 C8          0.7370   -3.4626   -1.4991 C.3       1 <0>         0.0000
      9 C9         -0.5781   -1.7107    2.3670 C.3       1 <0>         0.0000
     10 C10         7.1850   -1.9548    1.7203 C.3       1 <0>         0.0000
     11 C11         6.3716   -4.2554    0.9948 C.3       1 <0>         0.0000
     12 C12         5.9953   -2.9363    1.6910 C.3       1 <0>         0.0000
     13 C13         2.4245   -2.8999    0.3599 C.3       1 <0>         0.0000
     14 C14         7.0962   -0.8603    2.8067 C.3       1 <0>         0.0000
     15 C15         2.0646   -3.8508   -0.8201 C.3       1 <0>         0.0000
     16 N1          0.4604   -1.9038    1.3835 N.am      1 <0>         0.0000
     17 N2          3.6959   -3.2182    0.9688 N.am      1 <0>         0.0000
     18 N3          7.2036   -5.1082    1.8005 N.am      1 <0>         0.0000
     19 O1          6.6391   -5.4962    2.9999 O.3       1 <0>         0.0000
     20 O2          9.1502   -6.2986    2.2318 O.2       1 <0>         0.0000
     21 O3          4.7482   -1.1914    0.5542 O.2       1 <0>         0.0000
     22 O4          1.4623   -3.7076    2.4368 O.2       1 <0>         0.0000
     23 H1          8.8566   -5.2218    0.5453 H         1 <0>         0.0000
     24 H2          7.9109   -2.0554    4.4301 H         1 <0>         0.0000
     25 H3          6.1416   -2.0705    4.3492 H         1 <0>         0.0000
     26 H4          7.0010   -0.6512    4.9764 H         1 <0>         0.0000
     27 H5          9.2434   -0.4691    2.8487 H         1 <0>         0.0000
     28 H6          8.3428    0.5443    1.7062 H         1 <0>         0.0000
     29 H7          8.2495    0.8738    3.4405 H         1 <0>         0.0000
     30 H8          3.3133   -2.7845   -2.2720 H         1 <0>         0.0000
     31 H9          2.9723   -4.4622   -2.7277 H         1 <0>         0.0000
     32 H10         4.1465   -4.1154   -1.4578 H         1 <0>         0.0000
     33 H11         1.1705   -5.4095    0.4319 H         1 <0>         0.0000
     34 H12         2.8879   -5.6535    0.1281 H         1 <0>         0.0000
     35 H13         1.7055   -5.9859   -1.1517 H         1 <0>         0.0000
     36 H14        -0.0909   -3.4848   -0.7807 H         1 <0>         0.0000
     37 H15         0.4812   -4.1517   -2.3109 H         1 <0>         0.0000
     38 H16         0.7762   -2.4505   -1.9146 H         1 <0>         0.0000
     39 H17        -1.4589   -2.3023    2.1044 H         1 <0>         0.0000
     40 H18        -0.8634   -0.6562    2.4133 H         1 <0>         0.0000
     41 H19        -0.2264   -2.0222    3.3542 H         1 <0>         0.0000
     42 H20         8.1124   -2.5237    1.8705 H         1 <0>         0.0000
     43 H21         7.2788   -1.4660    0.7417 H         1 <0>         0.0000
     44 H22         5.4713   -4.8257    0.7425 H         1 <0>         0.0000
     45 H23         6.9178   -4.0682    0.0644 H         1 <0>         0.0000
     46 H24         5.7229   -3.1911    2.7220 H         1 <0>         0.0000
     47 H25         2.5279   -1.8729   -0.0129 H         1 <0>         0.0000
     48 H26         6.1964   -0.2560    2.6429 H         1 <0>         0.0000
     49 H27         0.4960   -1.2867    0.5777 H         1 <0>         0.0000
     50 H28         3.8157   -4.1378    1.3829 H         1 <0>         0.0000
@<TRIPOS>BOND
     1    1   18 am
     2    1   20 2
     3    2   12 1
     4    2   17 am
     5    2   21 2
     6    3   13 1
     7    3   16 am
     8    3   22 2
     9    4   14 1
    10    5   14 1
    11    6   15 1
    12    7   15 1
    13    8   15 1
    14    9   16 1
    15   10   12 1
    16   10   14 1
    17   11   12 1
    18   11   18 1
    19   13   15 1
    20   13   17 1
    21   18   19 1
    22    1   23 1
    23    4   24 1
    24    4   25 1
    25    4   26 1
    26    5   27 1
    27    5   28 1
    28    5   29 1
    29    6   30 1
    30    6   31 1
    31    6   32 1
    32    7   33 1
    33    7   34 1
    34    7   35 1
    35    8   36 1
    36    8   37 1
    37    8   38 1
    38    9   39 1
    39    9   40 1
    40    9   41 1
    41   10   42 1
    42   10   43 1
    43   11   44 1
    44   11   45 1
    45   12   46 1
    46   13   47 1
    47   14   48 1
    48   16   49 1
    49   17   50 1
@<TRIPOS>MOLECULE
LIGAND
   50    49     0     0     0
SMALL
NO_CHARGES

@<TRIPOS>ATOM
      1 C1          7.8390   -4.4407   -0.3957 C.2       1 <0>         0.0000
      2 C2          4.7609   -2.3304    1.0158 C.2       1 <0>         0.0000
      3 C3          1.3743   -3.6105    1.2141 C.2       1 <0>         0.0000
      4 C4          5.4286   -5.0551    3.9022 C.3       1 <0>         0.0000
      5 C5          5.1681   -3.1669    5.5205 C.3       1 <0>         0.0000
      6 C6          3.5112   -2.5312   -1.8976 C.3       1 <0>         0.0000
      7 C7          2.5798   -4.7765   -1.3563 C.3       1 <0>         0.0000
      8 C8          1.0336   -2.8618   -1.8044 C.3       1 <0>         0.0000
      9 C9         -0.8899   -3.3247    2.1744 C.3       1 <0>         0.0000
     10 C10         6.0212   -2.6662    3.2096 C.3       1 <0>         0.0000
     11 C11         7.2695   -2.4142    1.0053 C.3       1 <0>         0.0000
     12 C12         5.9953   -2.9363    1.6910 C.3       1 <0>         0.0000
     13 C13         2.4245   -2.8999    0.3599 C.3       1 <0>         0.0000
     14 C14         5.0884   -3.5706    4.0452 C.3       1 <0>         0.0000
     15 C15         2.3718   -3.2623   -1.1540 C.3       1 <0>         0.0000
     16 N1          0.2223   -2.8565    1.3827 N.am      1 <0>         0.0000
     17 N2          3.6959   -3.2182    0.9688 N.am      1 <0>         0.0000
     18 N3          7.5808   -3.1022   -0.2189 N.am      1 <0>         0.0000
     19 O1          7.6186   -2.2950   -1.3390 O.3       1 <0>         0.0000
     20 O2          8.1019   -4.9953   -1.4586 O.2       1 <0>         0.0000
     21 O3          4.7482   -1.1914    0.5542 O.2       1 <0>         0.0000
     22 O4          1.5569   -4.7218    1.7089 O.2       1 <0>         0.0000
     23 H1          7.7923   -5.0260    0.5397 H         1 <0>         0.0000
     24 H2          6.4596   -5.2491    4.2175 H         1 <0>         0.0000
     25 H3          5.3256   -5.3883    2.8641 H         1 <0>         0.0000
     26 H4          4.7804   -5.6761    4.5273 H         1 <0>         0.0000
     27 H5          6.1838   -3.2884    5.9121 H         1 <0>         0.0000
     28 H6          4.8754   -2.1200    5.6540 H         1 <0>         0.0000
     29 H7          4.4947   -3.7797    6.1290 H         1 <0>         0.0000
     30 H8          3.4182   -1.4447   -1.7906 H         1 <0>         0.0000
     31 H9          3.5120   -2.7653   -2.9677 H         1 <0>         0.0000
     32 H10         4.4918   -2.8203   -1.5020 H         1 <0>         0.0000
     33 H11         1.7979   -5.3538   -0.8491 H         1 <0>         0.0000
     34 H12         3.5395   -5.1121   -0.9494 H         1 <0>         0.0000
     35 H13         2.5489   -5.0416   -2.4191 H         1 <0>         0.0000
     36 H14         0.1926   -3.3589   -1.3070 H         1 <0>         0.0000
     37 H15         0.9978   -3.1431   -2.8622 H         1 <0>         0.0000
     38 H16         0.8573   -1.7835   -1.7352 H         1 <0>         0.0000
     39 H17        -1.5882   -3.8849    1.5471 H         1 <0>         0.0000
     40 H18        -1.4189   -2.4783    2.6208 H         1 <0>         0.0000
     41 H19        -0.5348   -3.9781    2.9759 H         1 <0>         0.0000
     42 H20         7.0493   -2.7891    3.5757 H         1 <0>         0.0000
     43 H21         5.7503   -1.6191    3.3985 H         1 <0>         0.0000
     44 H22         7.1657   -1.3514    0.7623 H         1 <0>         0.0000
     45 H23         8.1413   -2.5219    1.6590 H         1 <0>         0.0000
     46 H24         5.9704   -4.0198    1.5260 H         1 <0>         0.0000
     47 H25         2.3043   -1.8161    0.4837 H         1 <0>         0.0000
     48 H26         4.0519   -3.4254    3.7195 H         1 <0>         0.0000
     49 H27         0.1595   -1.9470    0.9352 H         1 <0>         0.0000
     50 H28         3.8157   -4.1378    1.3829 H         1 <0>         0.0000
@<TRIPOS>BOND
     1    1   18 am
     2    1   20 2
     3    2   12 1
     4    2   17 am
     5    2   21 2
     6    3   13 1
     7    3   16 am
     8    3   22 2
     9    4   14 1
    10    5   14 1
    11    6   15 1
    12    7   15 1
    13    8   15 1
    14    9   16 1
    15   10   12 1
    16   10   14 1
    17   11   12 1
    18   11   18 1
    19   13   15 1
    20   13   17 1
    21   18   19 1
    22    1   23 1
    23    4   24 1
    24    4   25 1
    25    4   26 1
    26    5   27 1
    27    5   28 1
    28    5   29 1
    29    6   30 1
    30    6   31 1
    31    6   32 1
    32    7   33 1
    33    7   34 1
    34    7   35 1
    35    8   36 1
    36    8   37 1
    37    8   38 1
    38    9   39 1
    39    9   40 1
    40    9   41 1
    41   10   42 1
    42   10   43 1
    43   11   44 1
    44   11   45 1
    45   12   46 1
    46   13   47 1
    47   14   48 1
    48   16   49 1
    49   17   50 1
@<TRIPOS>MOLECULE
LIGAND
   50    49     0     0     0
SMALL
NO_CHARGES

@<TRIPOS>ATOM
      1 C1          4.8014   -1.1421    4.3182 C.2       1 <0>         0.0000
      2 C2          4.7609   -2.3304    1.0158 C.2       1 <0>         0.0000
      3 C3          1.4114   -2.9063    1.5049 C.2       1 <0>         0.0000
      4 C4          7.9668   -2.9805   -0.7195 C.3       1 <0>         0.0000
      5 C5          7.2752   -5.3485   -1.1277 C.3       1 <0>         0.0000
      6 C6          3.1857   -3.8003   -1.8813 C.3       1 <0>         0.0000
      7 C7          1.9543   -5.3076   -0.3278 C.3       1 <0>         0.0000
      8 C8          0.7370   -3.4626   -1.4991 C.3       1 <0>         0.0000
      9 C9          0.8046   -4.1182    3.5770 C.3       1 <0>         0.0000
     10 C10         6.4903   -4.2069    0.9698 C.3       1 <0>         0.0000
     11 C11         5.6912   -3.2135    3.1734 C.3       1 <0>         0.0000
     12 C12         5.9953   -2.9363    1.6910 C.3       1 <0>         0.0000
     13 C13         2.4245   -2.8999    0.3599 C.3       1 <0>         0.0000
     14 C14         6.8518   -4.0083   -0.5189 C.3       1 <0>         0.0000
     15 C15         2.0646   -3.8508   -0.8201 C.3       1 <0>         0.0000
     16 N1          1.6532   -3.9132    2.4277 N.am      1 <0>         0.0000
     17 N2          3.6959   -3.2182    0.9688 N.am      1 <0>         0.0000
     18 N3          5.7903   -2.0436    4.0042 N.am      1 <0>         0.0000
     19 O1          7.0443   -1.8225    4.5393 O.3       1 <0>         0.0000
     20 O2          3.6358   -1.1801    3.9353 O.2       1 <0>         0.0000
     21 O3          4.7482   -1.1914    0.5542 O.2       1 <0>         0.0000
     22 O4          0.4758   -2.1105    1.5728 O.2       1 <0>         0.0000
     23 H1          5.1422   -0.3267    4.9806 H         1 <0>         0.0000
     24 H2          8.8753   -3.2848   -0.1883 H         1 <0>         0.0000
     25 H3          7.6713   -1.9951   -0.3441 H         1 <0>         0.0000
     26 H4          8.2323   -2.8793   -1.7758 H         1 <0>         0.0000
     27 H5          8.1599   -5.7527   -0.6240 H         1 <0>         0.0000
     28 H6          6.4698   -6.0859   -1.0440 H         1 <0>         0.0000
     29 H7          7.5125   -5.2358   -2.1909 H         1 <0>         0.0000
     30 H8          3.3133   -2.7845   -2.2720 H         1 <0>         0.0000
     31 H9          2.9723   -4.4622   -2.7277 H         1 <0>         0.0000
     32 H10         4.1465   -4.1154   -1.4578 H         1 <0>         0.0000
     33 H11         1.1705   -5.4095    0.4319 H         1 <0>         0.0000
     34 H12         2.8879   -5.6535    0.1281 H         1 <0>         0.0000
     35 H13         1.7055   -5.9859   -1.1517 H         1 <0>         0.0000
     36 H14        -0.0909   -3.4848   -0.7807 H         1 <0>         0.0000
     37 H15         0.4812   -4.1517   -2.3109 H         1 <0>         0.0000
     38 H16         0.7762   -2.4505   -1.9146 H         1 <0>         0.0000
     39 H17         1.1692   -3.5298    4.4230 H         1 <0>         0.0000
     40 H18         0.7992   -5.1745    3.8593 H         1 <0>         0.0000
     41 H19        -0.2198   -3.8109    3.3501 H         1 <0>         0.0000
     42 H20         7.3727   -4.5944    1.4964 H         1 <0>         0.0000
     43 H21         5.7222   -4.9884    1.0394 H         1 <0>         0.0000
     44 H22         4.6761   -3.6079    3.2888 H         1 <0>         0.0000
     45 H23         6.3842   -3.9541    3.5861 H         1 <0>         0.0000
     46 H24         6.7931   -2.1847    1.6686 H         1 <0>         0.0000
     47 H25         2.5279   -1.8729   -0.0129 H         1 <0>         0.0000
     48 H26         5.9671   -3.6628   -1.0661 H         1 <0>         0.0000
     49 H27         2.4520   -4.5251    2.2903 H         1 <0>         0.0000
     50 H28         3.8157   -4.1378    1.3829 H         1 <0>         0.0000
@<TRIPOS>BOND
     1    1   18 am
     2    1   20 2
     3    2   12 1
     4    2   17 am
     5    2   21 2
     6    3   13 1
     7    3   16 am
     8    3   22 2
     9    4   14 1
    10    5   14 1
    11    6   15 1
    12    7   15 1
    13    8   15 1
    14    9   16 1
    15   10   12 1
    16   10   14 1
    17   11   12 1
    18   11   18 1
    19   13   15 1
    20   13   17 1
    21   18   19 1
    22    1   23 1
    23    4   24 1
    24    4   25 1
    25    4   26 1
    26    5   27 1
    27    5   28 1
    28    5   29 1
    29    6   30 1
    30    6   31 1
    31    6   32 1
    32    7   33 1
    33    7   34 1
    34    7   35 1
    35    8   36 1
    36    8   37 1
    37    8   38 1
    38    9   39 1
    39    9   40 1
    40    9   41 1
    41   10   42 1
    42   10   43 1
    43   11   44 1
    44   11   45 1
    45   12   46 1
    46   13   47 1
    47   14   48 1
    48   16   49 1
    49   17   50 1
@<TRIPOS>MOLECULE
LIGAND
   50    49     0     0     0
SMALL
NO_CHARGES

@<TRIPOS>ATOM
      1 C1          8.9351   -1.3440    1.0840 C.2       1 <0>         0.0000
      2 C2          4.7609   -2.3304    1.0158 C.2       1 <0>         0.0000
      3 C3          1.4114   -2.9063    1.5049 C.2       1 <0>         0.0000
      4 C4          4.8998   -3.3220    4.5808 C.3       1 <0>         0.0000
      5 C5          5.9126   -1.1117    5.1647 C.3       1 <0>         0.0000
      6 C6          3.1857   -3.8003   -1.8813 C.3       1 <0>         0.0000
      7 C7          1.9543   -5.3076   -0.3278 C.3       1 <0>         0.0000
      8 C8          0.7370   -3.4626   -1.4991 C.3       1 <0>         0.0000
      9 C9         -0.0359   -1.4126    2.8483 C.3       1 <0>         0.0000
     10 C10         6.4405   -2.1272    2.9267 C.3       1 <0>         0.0000
     11 C11         7.1342   -3.0688    0.6654 C.3       1 <0>         0.0000
     12 C12         5.9953   -2.9363    1.6910 C.3       1 <0>         0.0000
     13 C13         2.4245   -2.8999    0.3599 C.3       1 <0>         0.0000
     14 C14         5.3645   -1.9750    4.0244 C.3       1 <0>         0.0000
     15 C15         2.0646   -3.8508   -0.8201 C.3       1 <0>         0.0000
     16 N1          0.9155   -1.6421    1.7876 N.am      1 <0>         0.0000
     17 N2          3.6959   -3.2182    0.9688 N.am      1 <0>         0.0000
     18 N3          7.8323   -1.8342    0.4261 N.am      1 <0>         0.0000
     19 O1          7.3093   -1.0662   -0.5958 O.3       1 <0>         0.0000
     20 O2          9.5287   -1.8872    2.0109 O.2       1 <0>         0.0000
     21 O3          4.7482   -1.1914    0.5542 O.2       1 <0>         0.0000
     22 O4          1.0981   -3.9285    2.1133 O.2       1 <0>         0.0000
     23 H1          9.2776   -0.3659    0.7022 H         1 <0>         0.0000
     24 H2          5.7423   -3.8772    5.0075 H         1 <0>         0.0000
     25 H3          4.4501   -3.9417    3.7978 H         1 <0>         0.0000
     26 H4          4.1642   -3.1925    5.3800 H         1 <0>         0.0000
     27 H5          6.7922   -1.5734    5.6261 H         1 <0>         0.0000
     28 H6          6.2016   -0.1209    4.7985 H         1 <0>         0.0000
     29 H7          5.1564   -0.9697    5.9440 H         1 <0>         0.0000
     30 H8          3.3133   -2.7845   -2.2720 H         1 <0>         0.0000
     31 H9          2.9723   -4.4622   -2.7277 H         1 <0>         0.0000
     32 H10         4.1465   -4.1154   -1.4578 H         1 <0>         0.0000
     33 H11         1.1705   -5.4095    0.4319 H         1 <0>         0.0000
     34 H12         2.8879   -5.6535    0.1281 H         1 <0>         0.0000
     35 H13         1.7055   -5.9859   -1.1517 H         1 <0>         0.0000
     36 H14        -0.0909   -3.4848   -0.7807 H         1 <0>         0.0000
     37 H15         0.4812   -4.1517   -2.3109 H         1 <0>         0.0000
     38 H16         0.7762   -2.4505   -1.9146 H         1 <0>         0.0000
     39 H17        -1.0554   -1.5084    2.4658 H         1 <0>         0.0000
     40 H18         0.0924   -0.4080    3.2604 H         1 <0>         0.0000
     41 H19         0.1090   -2.1415    3.6503 H         1 <0>         0.0000
     42 H20         7.3251   -2.6069    3.3666 H         1 <0>         0.0000
     43 H21         6.7588   -1.1249    2.6110 H         1 <0>         0.0000
     44 H22         7.8751   -3.7989    1.0081 H         1 <0>         0.0000
     45 H23         6.7546   -3.4103   -0.3032 H         1 <0>         0.0000
     46 H24         5.7385   -3.9535    2.0094 H         1 <0>         0.0000
     47 H25         2.5279   -1.8729   -0.0129 H         1 <0>         0.0000
     48 H26         4.4913   -1.4577    3.6101 H         1 <0>         0.0000
     49 H27         1.2316   -0.8537    1.2310 H         1 <0>         0.0000
     50 H28         3.8157   -4.1378    1.3829 H         1 <0>         0.0000
@<TRIPOS>BOND
     1    1   18 am
     2    1   20 2
     3    2   12 1
     4    2   17 am
     5    2   21 2
     6    3   13 1
     7    3   16 am
     8    3   22 2
     9    4   14 1
    10    5   14 1
    11    6   15 1
    12    7   15 1
    13    8   15 1
    14    9   16 1
    15   10   12 1
    16   10   14 1
    17   11   12 1
    18   11   18 1
    19   13   15 1
    20   13   17 1
    21   18   19 1
    22    1   23 1
    23    4   24 1
    24    4   25 1
    25    4   26 1
    26    5   27 1
    27    5   28 1
    28    5   29 1
    29    6   30 1
    30    6   31 1
    31    6   32 1
    32    7   33 1
    33    7   34 1
    34    7   35 1
    35    8   36 1
    36    8   37 1
    37    8   38 1
    38    9   39 1
    39    9   40 1
    40    9   41 1
    41   10   42 1
    42   10   43 1
    43   11   44 1
    44   11   45 1
    45   12   46 1
    46   13   47 1
    47   14   48 1
    48   16   49 1
    49   17   50 1
@<TRIPOS>MOLECULE
LIGAND
   50    49     0     0     0
SMALL
NO_CHARGES

@<TRIPOS>ATOM
      1 C1          8.9310   -2.5277    0.0294 C.2       1 <0>         0.0000
      2 C2          4.7609   -2.3304    1.0158 C.2       1 <0>         0.0000
      3 C3          1.4114   -2.9063    1.5049 C.2       1 <0>         0.0000
      4 C4          5.5916   -1.8934    4.5978 C.3       1 <0>         0.0000
      5 C5          7.0929    0.0222    4.0244 C.3       1 <0>         0.0000
      6 C6          3.1857   -3.8003   -1.8813 C.3       1 <0>         0.0000
      7 C7          1.9543   -5.3076   -0.3278 C.3       1 <0>         0.0000
      8 C8          0.7370   -3.4626   -1.4991 C.3       1 <0>         0.0000
      9 C9          0.8046   -4.1182    3.5770 C.3       1 <0>         0.0000
     10 C10         6.8665   -1.8668    2.3816 C.3       1 <0>         0.0000
     11 C11         6.8055   -3.7427    0.6616 C.3       1 <0>         0.0000
     12 C12         5.9953   -2.9363    1.6910 C.3       1 <0>         0.0000
     13 C13         2.4245   -2.8999    0.3599 C.3       1 <0>         0.0000
     14 C14         6.1374   -1.0321    3.4575 C.3       1 <0>         0.0000
     15 C15         2.0646   -3.8508   -0.8201 C.3       1 <0>         0.0000
     16 N1          1.6532   -3.9132    2.4277 N.am      1 <0>         0.0000
     17 N2          3.6959   -3.2182    0.9688 N.am      1 <0>         0.0000
     18 N3          7.6315   -2.9222   -0.1830 N.am      1 <0>         0.0000
     19 O1          7.0188   -2.4912   -1.3434 O.3       1 <0>         0.0000
     20 O2          9.6275   -2.8139    0.9986 O.2       1 <0>         0.0000
     21 O3          4.7482   -1.1914    0.5542 O.2       1 <0>         0.0000
     22 O4          0.4758   -2.1105    1.5728 O.2       1 <0>         0.0000
     23 H1          9.3375   -1.8953   -0.7795 H         1 <0>         0.0000
     24 H2          6.4006   -2.4456    5.0885 H         1 <0>         0.0000
     25 H3          4.8609   -2.6219    4.2310 H         1 <0>         0.0000
     26 H4          5.1097   -1.2817    5.3659 H         1 <0>         0.0000
     27 H5          7.9623   -0.4436    4.5008 H         1 <0>         0.0000
     28 H6          7.4545    0.6861    3.2321 H         1 <0>         0.0000
     29 H7          6.5886    0.6429    4.7727 H         1 <0>         0.0000
     30 H8          3.3133   -2.7845   -2.2720 H         1 <0>         0.0000
     31 H9          2.9723   -4.4622   -2.7277 H         1 <0>         0.0000
     32 H10         4.1465   -4.1154   -1.4578 H         1 <0>         0.0000
     33 H11         1.1705   -5.4095    0.4319 H         1 <0>         0.0000
     34 H12         2.8879   -5.6535    0.1281 H         1 <0>         0.0000
     35 H13         1.7055   -5.9859   -1.1517 H         1 <0>         0.0000
     36 H14        -0.0909   -3.4848   -0.7807 H         1 <0>         0.0000
     37 H15         0.4812   -4.1517   -2.3109 H         1 <0>         0.0000
     38 H16         0.7762   -2.4505   -1.9146 H         1 <0>         0.0000
     39 H17         1.1692   -3.5298    4.4230 H         1 <0>         0.0000
     40 H18         0.7992   -5.1745    3.8593 H         1 <0>         0.0000
     41 H19        -0.2198   -3.8109    3.3501 H         1 <0>         0.0000
     42 H20         7.7322   -2.3581    2.8457 H         1 <0>         0.0000
     43 H21         7.2705   -1.1813    1.6250 H         1 <0>         0.0000
     44 H22         7.4659   -4.4552    1.1672 H         1 <0>         0.0000
     45 H23         6.1454   -4.3134    0.0001 H         1 <0>         0.0000
     46 H24         5.6479   -3.6501    2.4472 H         1 <0>         0.0000
     47 H25         2.5279   -1.8729   -0.0129 H         1 <0>         0.0000
     48 H26         5.2955   -0.5008    2.9986 H         1 <0>         0.0000
     49 H27         2.4520   -4.5251    2.2903 H         1 <0>         0.0000
     50 H28         3.8157   -4.1378    1.3829 H         1 <0>         0.0000
@<TRIPOS>BOND
     1    1   18 am
     2    1   20 2
     3    2   12 1
     4    2   17 am
     5    2   21 2
     6    3   13 1
     7    3   16 am
     8    3   22 2
     9    4   14 1
    10    5   14 1
    11    6   15 1
    12    7   15 1
    13    8   15 1
    14    9   16 1
    15   10   12 1
    16   10   14 1
    17   11   12 1
    18   11   18 1
    19   13   15 1
    20   13   17 1
    21   18   19 1
    22    1   23 1
    23    4   24 1
    24    4   25 1
    25    4   26 1
    26    5   27 1
    27    5   28 1
    28    5   29 1
    29    6   30 1
    30    6   31 1
    31    6   32 1
    32    7   33 1
    33    7   34 1
    34    7   35 1
    35    8   36 1
    36    8   37 1
    37    8   38 1
    38    9   39 1
    39    9   40 1
    40    9   41 1
    41   10   42 1
    42   10   43 1
    43   11   44 1
    44   11   45 1
    45   12   46 1
    46   13   47 1
    47   14   48 1
    48   16   49 1
    49   17   50 1
@<TRIPOS>MOLECULE
LIGAND
   50    49     0     0     0
SMALL
NO_CHARGES

@<TRIPOS>ATOM
      1 C1          9.3378   -3.1321    2.2703 C.2       1 <0>         0.0000
      2 C2          4.7609   -2.3304    1.0158 C.2       1 <0>         0.0000
      3 C3          1.4114   -2.9063    1.5049 C.2       1 <0>         0.0000
      4 C4          5.4286   -5.0551    3.9022 C.3       1 <0>         0.0000
      5 C5          5.1681   -3.1669    5.5205 C.3       1 <0>         0.0000
      6 C6          3.1857   -3.8003   -1.8813 C.3       1 <0>         0.0000
      7 C7          1.9543   -5.3076   -0.3278 C.3       1 <0>         0.0000
      8 C8          0.7370   -3.4626   -1.4991 C.3       1 <0>         0.0000
      9 C9          1.0123   -1.9958    3.7725 C.3       1 <0>         0.0000
     10 C10         6.0212   -2.6662    3.2096 C.3       1 <0>         0.0000
     11 C11         7.2695   -2.4142    1.0053 C.3       1 <0>         0.0000
     12 C12         5.9953   -2.9363    1.6910 C.3       1 <0>         0.0000
     13 C13         2.4245   -2.8999    0.3599 C.3       1 <0>         0.0000
     14 C14         5.0884   -3.5706    4.0452 C.3       1 <0>         0.0000
     15 C15         2.0646   -3.8508   -0.8201 C.3       1 <0>         0.0000
     16 N1          1.8071   -2.1159    2.5738 N.am      1 <0>         0.0000
     17 N2          3.6959   -3.2182    0.9688 N.am      1 <0>         0.0000
     18 N3          8.4249   -3.2358    1.2479 N.am      1 <0>         0.0000
     19 O1          8.6173   -4.2452    0.3251 O.3       1 <0>         0.0000
     20 O2          9.3248   -2.3015    3.1740 O.2       1 <0>         0.0000
     21 O3          4.7482   -1.1914    0.5542 O.2       1 <0>         0.0000
     22 O4          0.3728   -3.5647    1.4736 O.2       1 <0>         0.0000
     23 H1         10.1373   -3.8927    2.2264 H         1 <0>         0.0000
     24 H2          6.4596   -5.2491    4.2175 H         1 <0>         0.0000
     25 H3          5.3256   -5.3883    2.8641 H         1 <0>         0.0000
     26 H4          4.7804   -5.6761    4.5273 H         1 <0>         0.0000
     27 H5          6.1838   -3.2884    5.9121 H         1 <0>         0.0000
     28 H6          4.8754   -2.1200    5.6540 H         1 <0>         0.0000
     29 H7          4.4947   -3.7797    6.1290 H         1 <0>         0.0000
     30 H8          3.3133   -2.7845   -2.2720 H         1 <0>         0.0000
     31 H9          2.9723   -4.4622   -2.7277 H         1 <0>         0.0000
     32 H10         4.1465   -4.1154   -1.4578 H         1 <0>         0.0000
     33 H11         1.1705   -5.4095    0.4319 H         1 <0>         0.0000
     34 H12         2.8879   -5.6535    0.1281 H         1 <0>         0.0000
     35 H13         1.7055   -5.9859   -1.1517 H         1 <0>         0.0000
     36 H14        -0.0909   -3.4848   -0.7807 H         1 <0>         0.0000
     37 H15         0.4812   -4.1517   -2.3109 H         1 <0>         0.0000
     38 H16         0.7762   -2.4505   -1.9146 H         1 <0>         0.0000
     39 H17         0.3100   -1.1637    3.6759 H         1 <0>         0.0000
     40 H18         1.6568   -1.8137    4.6368 H         1 <0>         0.0000
     41 H19         0.4467   -2.9155    3.9448 H         1 <0>         0.0000
     42 H20         7.0493   -2.7891    3.5757 H         1 <0>         0.0000
     43 H21         5.7503   -1.6191    3.3985 H         1 <0>         0.0000
     44 H22         7.1283   -2.3661   -0.0797 H         1 <0>         0.0000
     45 H23         7.5195   -1.4064    1.3527 H         1 <0>         0.0000
     46 H24         5.9704   -4.0198    1.5260 H         1 <0>         0.0000
     47 H25         2.5279   -1.8729   -0.0129 H         1 <0>         0.0000
     48 H26         4.0519   -3.4254    3.7195 H         1 <0>         0.0000
     49 H27         2.6832   -1.6060    2.5111 H         1 <0>         0.0000
     50 H28         3.8157   -4.1378    1.3829 H         1 <0>         0.0000
@<TRIPOS>BOND
     1    1   18 am
     2    1   20 2
     3    2   12 1
     4    2   17 am
     5    2   21 2
     6    3   13 1
     7    3   16 am
     8    3   22 2
     9    4   14 1
    10    5   14 1
    11    6   15 1
    12    7   15 1
    13    8   15 1
    14    9   16 1
    15   10   12 1
    16   10   14 1
    17   11   12 1
    18   11   18 1
    19   13   15 1
    20   13   17 1
    21   18   19 1
    22    1   23 1
    23    4   24 1
    24    4   25 1
    25    4   26 1
    26    5   27 1
    27    5   28 1
    28    5   29 1
    29    6   30 1
    30    6   31 1
    31    6   32 1
    32    7   33 1
    33    7   34 1
    34    7   35 1
    35    8   36 1
    36    8   37 1
    37    8   38 1
    38    9   39 1
    39    9   40 1
    40    9   41 1
    41   10   42 1
    42   10   43 1
    43   11   44 1
    44   11   45 1
    45   12   46 1
    46   13   47 1
    47   14   48 1
    48   16   49 1
    49   17   50 1
@<TRIPOS>MOLECULE
LIGAND
   50    49     0     0     0
SMALL
NO_CHARGES

@<TRIPOS>ATOM
      1 C1          7.5793   -4.4967    4.2605 C.2       1 <0>         0.0000
      2 C2          4.7609   -2.3304    1.0158 C.2       1 <0>         0.0000
      3 C3          1.4114   -2.9063    1.5049 C.2       1 <0>         0.0000
      4 C4          7.9668   -2.9805   -0.7195 C.3       1 <0>         0.0000
      5 C5          7.2752   -5.3485   -1.1277 C.3       1 <0>         0.0000
      6 C6          3.1857   -3.8003   -1.8813 C.3       1 <0>         0.0000
      7 C7          1.9543   -5.3076   -0.3278 C.3       1 <0>         0.0000
      8 C8          0.7370   -3.4626   -1.4991 C.3       1 <0>         0.0000
      9 C9          0.8046   -4.1182    3.5770 C.3       1 <0>         0.0000
     10 C10         6.4903   -4.2069    0.9698 C.3       1 <0>         0.0000
     11 C11         5.6912   -3.2135    3.1734 C.3       1 <0>         0.0000
     12 C12         5.9953   -2.9363    1.6910 C.3       1 <0>         0.0000
     13 C13         2.4245   -2.8999    0.3599 C.3       1 <0>         0.0000
     14 C14         6.8518   -4.0083   -0.5189 C.3       1 <0>         0.0000
     15 C15         2.0646   -3.8508   -0.8201 C.3       1 <0>         0.0000
     16 N1          1.6532   -3.9132    2.4277 N.am      1 <0>         0.0000
     17 N2          3.6959   -3.2182    0.9688 N.am      1 <0>         0.0000
     18 N3          6.8729   -3.3510    3.9817 N.am      1 <0>         0.0000
     19 O1          7.3330   -2.1714    4.5335 O.3       1 <0>         0.0000
     20 O2          7.3180   -5.6268    3.8588 O.2       1 <0>         0.0000
     21 O3          4.7482   -1.1914    0.5542 O.2       1 <0>         0.0000
     22 O4          0.4758   -2.1105    1.5728 O.2       1 <0>         0.0000
     23 H1          8.4551   -4.3273    4.9116 H         1 <0>         0.0000
     24 H2          8.8753   -3.2848   -0.1883 H         1 <0>         0.0000
     25 H3          7.6713   -1.9951   -0.3441 H         1 <0>         0.0000
     26 H4          8.2323   -2.8793   -1.7758 H         1 <0>         0.0000
     27 H5          8.1599   -5.7527   -0.6240 H         1 <0>         0.0000
     28 H6          6.4698   -6.0859   -1.0440 H         1 <0>         0.0000
     29 H7          7.5125   -5.2358   -2.1909 H         1 <0>         0.0000
     30 H8          3.3133   -2.7845   -2.2720 H         1 <0>         0.0000
     31 H9          2.9723   -4.4622   -2.7277 H         1 <0>         0.0000
     32 H10         4.1465   -4.1154   -1.4578 H         1 <0>         0.0000
     33 H11         1.1705   -5.4095    0.4319 H         1 <0>         0.0000
     34 H12         2.8879   -5.6535    0.1281 H         1 <0>         0.0000
     35 H13         1.7055   -5.9859   -1.1517 H         1 <0>         0.0000
     36 H14        -0.0909   -3.4848   -0.7807 H         1 <0>         0.0000
     37 H15         0.4812   -4.1517   -2.3109 H         1 <0>         0.0000
     38 H16         0.7762   -2.4505   -1.9146 H         1 <0>         0.0000
     39 H17         1.1692   -3.5298    4.4230 H         1 <0>         0.0000
     40 H18         0.7992   -5.1745    3.8593 H         1 <0>         0.0000
     41 H19        -0.2198   -3.8109    3.3501 H         1 <0>         0.0000
     42 H20         7.3727   -4.5944    1.4964 H         1 <0>         0.0000
     43 H21         5.7222   -4.9884    1.0394 H         1 <0>         0.0000
     44 H22         5.0986   -2.3982    3.6018 H         1 <0>         0.0000
     45 H23         5.1177   -4.1388    3.2917 H         1 <0>         0.0000
     46 H24         6.7931   -2.1847    1.6686 H         1 <0>         0.0000
     47 H25         2.5279   -1.8729   -0.0129 H         1 <0>         0.0000
     48 H26         5.9671   -3.6628   -1.0661 H         1 <0>         0.0000
     49 H27         2.4520   -4.5251    2.2903 H         1 <0>         0.0000
     50 H28         3.8157   -4.1378    1.3829 H         1 <0>         0.0000
@<TRIPOS>BOND
     1    1   18 am
     2    1   20 2
     3    2   12 1
     4    2   17 am
     5    2   21 2
     6    3   13 1
     7    3   16 am
     8    3   22 2
     9    4   14 1
    10    5   14 1
    11    6   15 1
    12    7   15 1
    13    8   15 1
    14    9   16 1
    15   10   12 1
    16   10   14 1
    17   11   12 1
    18   11   18 1
    19   13   15 1
    20   13   17 1
    21   18   19 1
    22    1   23 1
    23    4   24 1
    24    4   25 1
    25    4   26 1
    26    5   27 1
    27    5   28 1
    28    5   29 1
    29    6   30 1
    30    6   31 1
    31    6   32 1
    32    7   33 1
    33    7   34 1
    34    7   35 1
    35    8   36 1
    36    8   37 1
    37    8   38 1
    38    9   39 1
    39    9   40 1
    40    9   41 1
    41   10   42 1
    42   10   43 1
    43   11   44 1
    44   11   45 1
    45   12   46 1
    46   13   47 1
    47   14   48 1
    48   16   49 1
    49   17   50 1
@<TRIPOS>MOLECULE
LIGAND
   50    49     0     0     0
SMALL
NO_CHARGES

@<TRIPOS>ATOM
      1 C1          8.4672   -5.5698    1.5183 C.2       1 <0>         0.0000
      2 C2          4.7609   -2.3304    1.0158 C.2       1 <0>         0.0000
      3 C3          1.6238   -2.1763    1.4428 C.2       1 <0>         0.0000
      4 C4          7.0285   -1.4411    4.2202 C.3       1 <0>         0.0000
      5 C5          8.3048    0.0740    2.6945 C.3       1 <0>         0.0000
      6 C6          2.6382   -4.8237   -1.2732 C.3       1 <0>         0.0000
      7 C7          1.4139   -5.1834    0.8654 C.3       1 <0>         0.0000
      8 C8          0.3871   -3.7862   -0.9377 C.3       1 <0>         0.0000
      9 C9          0.0532   -0.2939    1.7895 C.3       1 <0>         0.0000
     10 C10         7.1850   -1.9548    1.7203 C.3       1 <0>         0.0000
     11 C11         6.3716   -4.2554    0.9948 C.3       1 <0>         0.0000
     12 C12         5.9953   -2.9363    1.6910 C.3       1 <0>         0.0000
     13 C13         2.4245   -2.8999    0.3599 C.3       1 <0>         0.0000
     14 C14         7.0962   -0.8603    2.8067 C.3       1 <0>         0.0000
     15 C15         1.7114   -4.1488   -0.2382 C.3       1 <0>         0.0000
     16 N1          0.8675   -1.1285    0.9389 N.am      1 <0>         0.0000
     17 N2          3.6959   -3.2182    0.9688 N.am      1 <0>         0.0000
     18 N3          7.2036   -5.1082    1.8005 N.am      1 <0>         0.0000
     19 O1          6.6391   -5.4962    2.9999 O.3       1 <0>         0.0000
     20 O2          9.1502   -6.2986    2.2318 O.2       1 <0>         0.0000
     21 O3          4.7482   -1.1914    0.5542 O.2       1 <0>         0.0000
     22 O4          1.6741   -2.4892    2.6314 O.2       1 <0>         0.0000
     23 H1          8.8566   -5.2218    0.5453 H         1 <0>         0.0000
     24 H2          7.9109   -2.0554    4.4301 H         1 <0>         0.0000
     25 H3          6.1416   -2.0705    4.3492 H         1 <0>         0.0000
     26 H4          7.0010   -0.6512    4.9764 H         1 <0>         0.0000
     27 H5          9.2434   -0.4691    2.8487 H         1 <0>         0.0000
     28 H6          8.3428    0.5443    1.7062 H         1 <0>         0.0000
     29 H7          8.2495    0.8738    3.4405 H         1 <0>         0.0000
     30 H8          2.8872   -4.1345   -2.0879 H         1 <0>         0.0000
     31 H9          2.1738   -5.7124   -1.7140 H         1 <0>         0.0000
     32 H10         3.5794   -5.1449   -0.8119 H         1 <0>         0.0000
     33 H11         0.7565   -4.7621    1.6349 H         1 <0>         0.0000
     34 H12         2.3282   -5.5113    1.3711 H         1 <0>         0.0000
     35 H13         0.9158   -6.0685    0.4541 H         1 <0>         0.0000
     36 H14        -0.3050   -3.3025   -0.2384 H         1 <0>         0.0000
     37 H15        -0.1179   -4.6740   -1.3329 H         1 <0>         0.0000
     38 H16         0.5457   -3.0900   -1.7676 H         1 <0>         0.0000
     39 H17        -0.9522   -0.7139    1.8767 H         1 <0>         0.0000
     40 H18        -0.0213    0.7135    1.3710 H         1 <0>         0.0000
     41 H19         0.4945   -0.2269    2.7876 H         1 <0>         0.0000
     42 H20         8.1124   -2.5237    1.8705 H         1 <0>         0.0000
     43 H21         7.2788   -1.4660    0.7417 H         1 <0>         0.0000
     44 H22         5.4713   -4.8257    0.7425 H         1 <0>         0.0000
     45 H23         6.9178   -4.0682    0.0644 H         1 <0>         0.0000
     46 H24         5.7229   -3.1911    2.7220 H         1 <0>         0.0000
     47 H25         2.6549   -2.1876   -0.4426 H         1 <0>         0.0000
     48 H26         6.1964   -0.2560    2.6429 H         1 <0>         0.0000
     49 H27         0.8872   -0.9429   -0.0594 H         1 <0>         0.0000
     50 H28         3.8157   -4.1378    1.3829 H         1 <0>         0.0000
@<TRIPOS>BOND
     1    1   18 am
     2    1   20 2
     3    2   12 1
     4    2   17 am
     5    2   21 2
     6    3   13 1
     7    3   16 am
     8    3   22 2
     9    4   14 1
    10    5   14 1
    11    6   15 1
    12    7   15 1
    13    8   15 1
    14    9   16 1
    15   10   12 1
    16   10   14 1
    17   11   12 1
    18   11   18 1
    19   13   15 1
    20   13   17 1
    21   18   19 1
    22    1   23 1
    23    4   24 1
    24    4   25 1
    25    4   26 1
    26    5   27 1
    27    5   28 1
    28    5   29 1
    29    6   30 1
    30    6   31 1
    31    6   32 1
    32    7   33 1
    33    7   34 1
    34    7   35 1
    35    8   36 1
    36    8   37 1
    37    8   38 1
    38    9   39 1
    39    9   40 1
    40    9   41 1
    41   10   42 1
    42   10   43 1
    43   11   44 1
    44   11   45 1
    45   12   46 1
    46   13   47 1
    47   14   48 1
    48   16   49 1
    49   17   50 1
@<TRIPOS>MOLECULE
LIGAND
   50    49     0     0     0
SMALL
NO_CHARGES

@<TRIPOS>ATOM
      1 C1          6.4496   -5.2442   -0.4265 C.2       1 <0>         0.0000
      2 C2          4.7609   -2.3304    1.0158 C.2       1 <0>         0.0000
      3 C3          1.9548   -1.6162    1.0446 C.2       1 <0>         0.0000
      4 C4          4.8998   -3.3220    4.5808 C.3       1 <0>         0.0000
      5 C5          5.9126   -1.1117    5.1647 C.3       1 <0>         0.0000
      6 C6          2.0155   -5.3270   -0.2360 C.3       1 <0>         0.0000
      7 C7          1.1035   -4.4371    1.9036 C.3       1 <0>         0.0000
      8 C8          0.0778   -3.7458   -0.2707 C.3       1 <0>         0.0000
      9 C9          0.8348    0.5461    0.5966 C.3       1 <0>         0.0000
     10 C10         6.4405   -2.1272    2.9267 C.3       1 <0>         0.0000
     11 C11         7.1342   -3.0688    0.6654 C.3       1 <0>         0.0000
     12 C12         5.9953   -2.9363    1.6910 C.3       1 <0>         0.0000
     13 C13         2.4245   -2.8999    0.3599 C.3       1 <0>         0.0000
     14 C14         5.3645   -1.9750    4.0244 C.3       1 <0>         0.0000
     15 C15         1.4067   -4.0765    0.4357 C.3       1 <0>         0.0000
     16 N1          1.3343   -0.7384    0.1680 N.am      1 <0>         0.0000
     17 N2          3.6959   -3.2182    0.9688 N.am      1 <0>         0.0000
     18 N3          6.8025   -3.9159   -0.4486 N.am      1 <0>         0.0000
     19 O1          6.8526   -3.2928   -1.6802 O.3       1 <0>         0.0000
     20 O2          6.1721   -5.9382   -1.4001 O.2       1 <0>         0.0000
     21 O3          4.7482   -1.1914    0.5542 O.2       1 <0>         0.0000
     22 O4          2.1356   -1.3931    2.2407 O.2       1 <0>         0.0000
     23 H1          6.4298   -5.6783    0.5888 H         1 <0>         0.0000
     24 H2          5.7423   -3.8772    5.0075 H         1 <0>         0.0000
     25 H3          4.4501   -3.9417    3.7978 H         1 <0>         0.0000
     26 H4          4.1642   -3.1925    5.3800 H         1 <0>         0.0000
     27 H5          6.7922   -1.5734    5.6261 H         1 <0>         0.0000
     28 H6          6.2016   -0.1209    4.7985 H         1 <0>         0.0000
     29 H7          5.1564   -0.9697    5.9440 H         1 <0>         0.0000
     30 H8          2.2541   -5.1329   -1.2877 H         1 <0>         0.0000
     31 H9          1.3305   -6.1810   -0.1982 H         1 <0>         0.0000
     32 H10         2.9425   -5.6329    0.2628 H         1 <0>         0.0000
     33 H11         0.6668   -3.5850    2.4375 H         1 <0>         0.0000
     34 H12         2.0104   -4.7234    2.4466 H         1 <0>         0.0000
     35 H13         0.3913   -5.2673    1.9681 H         1 <0>         0.0000
     36 H14        -0.3923   -2.8611    0.1746 H         1 <0>         0.0000
     37 H15        -0.6390   -4.5698   -0.1902 H         1 <0>         0.0000
     38 H16         0.2276   -3.5306   -1.3336 H         1 <0>         0.0000
     39 H17        -0.2038    0.4548    0.9249 H         1 <0>         0.0000
     40 H18         0.8817    1.2638   -0.2270 H         1 <0>         0.0000
     41 H19         1.4345    0.9267    1.4277 H         1 <0>         0.0000
     42 H20         7.3251   -2.6069    3.3666 H         1 <0>         0.0000
     43 H21         6.7588   -1.1249    2.6110 H         1 <0>         0.0000
     44 H22         7.3992   -2.0872    0.2584 H         1 <0>         0.0000
     45 H23         8.0331   -3.4907    1.1269 H         1 <0>         0.0000
     46 H24         5.7385   -3.9535    2.0094 H         1 <0>         0.0000
     47 H25         2.6512   -2.6760   -0.6903 H         1 <0>         0.0000
     48 H26         4.4913   -1.4577    3.6101 H         1 <0>         0.0000
     49 H27         1.2283   -1.0078   -0.8054 H         1 <0>         0.0000
     50 H28         3.8157   -4.1378    1.3829 H         1 <0>         0.0000
@<TRIPOS>BOND
     1    1   18 am
     2    1   20 2
     3    2   12 1
     4    2   17 am
     5    2   21 2
     6    3   13 1
     7    3   16 am
     8    3   22 2
     9    4   14 1
    10    5   14 1
    11    6   15 1
    12    7   15 1
    13    8   15 1
    14    9   16 1
    15   10   12 1
    16   10   14 1
    17   11   12 1
    18   11   18 1
    19   13   15 1
    20   13   17 1
    21   18   19 1
    22    1   23 1
    23    4   24 1
    24    4   25 1
    25    4   26 1
    26    5   27 1
    27    5   28 1
    28    5   29 1
    29    6   30 1
    30    6   31 1
    31    6   32 1
    32    7   33 1
    33    7   34 1
    34    7   35 1
    35    8   36 1
    36    8   37 1
    37    8   38 1
    38    9   39 1
    39    9   40 1
    40    9   41 1
    41   10   42 1
    42   10   43 1
    43   11   44 1
    44   11   45 1
    45   12   46 1
    46   13   47 1
    47   14   48 1
    48   16   49 1
    49   17   50 1
@<TRIPOS>MOLECULE
LIGAND
   50    49     0     0     0
SMALL
NO_CHARGES

@<TRIPOS>ATOM
      1 C1          8.0812   -5.2529    2.2381 C.2       1 <0>         0.0000
      2 C2          4.7609   -2.3304    1.0158 C.2       1 <0>         0.0000
      3 C3          1.6238   -2.1763    1.4428 C.2       1 <0>         0.0000
      4 C4          5.5916   -1.8934    4.5978 C.3       1 <0>         0.0000
      5 C5          7.0929    0.0222    4.0244 C.3       1 <0>         0.0000
      6 C6          2.6382   -4.8237   -1.2732 C.3       1 <0>         0.0000
      7 C7          1.4139   -5.1834    0.8654 C.3       1 <0>         0.0000
      8 C8          0.3871   -3.7862   -0.9377 C.3       1 <0>         0.0000
      9 C9          1.3383    0.0348    2.5199 C.3       1 <0>         0.0000
     10 C10         6.8665   -1.8668    2.3816 C.3       1 <0>         0.0000
     11 C11         6.8055   -3.7427    0.6616 C.3       1 <0>         0.0000
     12 C12         5.9953   -2.9363    1.6910 C.3       1 <0>         0.0000
     13 C13         2.4245   -2.8999    0.3599 C.3       1 <0>         0.0000
     14 C14         6.1374   -1.0321    3.4575 C.3       1 <0>         0.0000
     15 C15         1.7114   -4.1488   -0.2382 C.3       1 <0>         0.0000
     16 N1          1.9549   -0.8333    1.5455 N.am      1 <0>         0.0000
     17 N2          3.6959   -3.2182    0.9688 N.am      1 <0>         0.0000
     18 N3          7.9912   -4.3422    1.2125 N.am      1 <0>         0.0000
     19 O1          9.1704   -3.9351    0.6197 O.3       1 <0>         0.0000
     20 O2          7.1439   -5.7230    2.8761 O.2       1 <0>         0.0000
     21 O3          4.7482   -1.1914    0.5542 O.2       1 <0>         0.0000
     22 O4          0.7950   -2.7447    2.1522 O.2       1 <0>         0.0000
     23 H1          9.1177   -5.5563    2.4686 H         1 <0>         0.0000
     24 H2          6.4006   -2.4456    5.0885 H         1 <0>         0.0000
     25 H3          4.8609   -2.6219    4.2310 H         1 <0>         0.0000
     26 H4          5.1097   -1.2817    5.3659 H         1 <0>         0.0000
     27 H5          7.9623   -0.4436    4.5008 H         1 <0>         0.0000
     28 H6          7.4545    0.6861    3.2321 H         1 <0>         0.0000
     29 H7          6.5886    0.6429    4.7727 H         1 <0>         0.0000
     30 H8          2.8872   -4.1345   -2.0879 H         1 <0>         0.0000
     31 H9          2.1738   -5.7124   -1.7140 H         1 <0>         0.0000
     32 H10         3.5794   -5.1449   -0.8119 H         1 <0>         0.0000
     33 H11         0.7565   -4.7621    1.6349 H         1 <0>         0.0000
     34 H12         2.3282   -5.5113    1.3711 H         1 <0>         0.0000
     35 H13         0.9158   -6.0685    0.4541 H         1 <0>         0.0000
     36 H14        -0.3050   -3.3025   -0.2384 H         1 <0>         0.0000
     37 H15        -0.1179   -4.6740   -1.3329 H         1 <0>         0.0000
     38 H16         0.5457   -3.0900   -1.7676 H         1 <0>         0.0000
     39 H17         0.4402    0.4941    2.0989 H         1 <0>         0.0000
     40 H18         2.0331    0.8259    2.8147 H         1 <0>         0.0000
     41 H19         1.0580   -0.5350    3.4100 H         1 <0>         0.0000
     42 H20         7.7322   -2.3581    2.8457 H         1 <0>         0.0000
     43 H21         7.2705   -1.1813    1.6250 H         1 <0>         0.0000
     44 H22         6.1970   -4.5521    0.2444 H         1 <0>         0.0000
     45 H23         7.1292   -3.1080   -0.1699 H         1 <0>         0.0000
     46 H24         5.6479   -3.6501    2.4472 H         1 <0>         0.0000
     47 H25         2.6549   -2.1876   -0.4426 H         1 <0>         0.0000
     48 H26         5.2955   -0.5008    2.9986 H         1 <0>         0.0000
     49 H27         2.6527   -0.4488    0.9157 H         1 <0>         0.0000
     50 H28         3.8157   -4.1378    1.3829 H         1 <0>         0.0000
@<TRIPOS>BOND
     1    1   18 am
     2    1   20 2
     3    2   12 1
     4    2   17 am
     5    2   21 2
     6    3   13 1
     7    3   16 am
     8    3   22 2
     9    4   14 1
    10    5   14 1
    11    6   15 1
    12    7   15 1
    13    8   15 1
    14    9   16 1
    15   10   12 1
    16   10   14 1
    17   11   12 1
    18   11   18 1
    19   13   15 1
    20   13   17 1
    21   18   19 1
    22    1   23 1
    23    4   24 1
    24    4   25 1
    25    4   26 1
    26    5   27 1
    27    5   28 1
    28    5   29 1
    29    6   30 1
    30    6   31 1
    31    6   32 1
    32    7   33 1
    33    7   34 1
    34    7   35 1
    35    8   36 1
    36    8   37 1
    37    8   38 1
    38    9   39 1
    39    9   40 1
    40    9   41 1
    41   10   42 1
    42   10   43 1
    43   11   44 1
    44   11   45 1
    45   12   46 1
    46   13   47 1
    47   14   48 1
    48   16   49 1
    49   17   50 1
@<TRIPOS>MOLECULE
LIGAND
   50    49     0     0     0
SMALL
NO_CHARGES

@<TRIPOS>ATOM
      1 C1          6.7648   -3.5849   -1.7822 C.2       1 <0>         0.0000
      2 C2          4.7609   -2.3304    1.0158 C.2       1 <0>         0.0000
      3 C3          1.9548   -1.6162    1.0446 C.2       1 <0>         0.0000
      4 C4          4.8998   -3.3220    4.5808 C.3       1 <0>         0.0000
      5 C5          5.9126   -1.1117    5.1647 C.3       1 <0>         0.0000
      6 C6          2.0155   -5.3270   -0.2360 C.3       1 <0>         0.0000
      7 C7          1.1035   -4.4371    1.9036 C.3       1 <0>         0.0000
      8 C8          0.0778   -3.7458   -0.2707 C.3       1 <0>         0.0000
      9 C9          0.8348    0.5461    0.5966 C.3       1 <0>         0.0000
     10 C10         6.4405   -2.1272    2.9267 C.3       1 <0>         0.0000
     11 C11         7.1342   -3.0688    0.6654 C.3       1 <0>         0.0000
     12 C12         5.9953   -2.9363    1.6910 C.3       1 <0>         0.0000
     13 C13         2.4245   -2.8999    0.3599 C.3       1 <0>         0.0000
     14 C14         5.3645   -1.9750    4.0244 C.3       1 <0>         0.0000
     15 C15         1.4067   -4.0765    0.4357 C.3       1 <0>         0.0000
     16 N1          1.3343   -0.7384    0.1680 N.am      1 <0>         0.0000
     17 N2          3.6959   -3.2182    0.9688 N.am      1 <0>         0.0000
     18 N3          6.8025   -3.9159   -0.4486 N.am      1 <0>         0.0000
     19 O1          6.4869   -5.2168   -0.1083 O.3       1 <0>         0.0000
     20 O2          6.4764   -4.3361   -2.7090 O.2       1 <0>         0.0000
     21 O3          4.7482   -1.1914    0.5542 O.2       1 <0>         0.0000
     22 O4          2.1356   -1.3931    2.2407 O.2       1 <0>         0.0000
     23 H1          7.0273   -2.5310   -1.9824 H         1 <0>         0.0000
     24 H2          5.7423   -3.8772    5.0075 H         1 <0>         0.0000
     25 H3          4.4501   -3.9417    3.7978 H         1 <0>         0.0000
     26 H4          4.1642   -3.1925    5.3800 H         1 <0>         0.0000
     27 H5          6.7922   -1.5734    5.6261 H         1 <0>         0.0000
     28 H6          6.2016   -0.1209    4.7985 H         1 <0>         0.0000
     29 H7          5.1564   -0.9697    5.9440 H         1 <0>         0.0000
     30 H8          2.2541   -5.1329   -1.2877 H         1 <0>         0.0000
     31 H9          1.3305   -6.1810   -0.1982 H         1 <0>         0.0000
     32 H10         2.9425   -5.6329    0.2628 H         1 <0>         0.0000
     33 H11         0.6668   -3.5850    2.4375 H         1 <0>         0.0000
     34 H12         2.0104   -4.7234    2.4466 H         1 <0>         0.0000
     35 H13         0.3913   -5.2673    1.9681 H         1 <0>         0.0000
     36 H14        -0.3923   -2.8611    0.1746 H         1 <0>         0.0000
     37 H15        -0.6390   -4.5698   -0.1902 H         1 <0>         0.0000
     38 H16         0.2276   -3.5306   -1.3336 H         1 <0>         0.0000
     39 H17        -0.2038    0.4548    0.9249 H         1 <0>         0.0000
     40 H18         0.8817    1.2638   -0.2270 H         1 <0>         0.0000
     41 H19         1.4345    0.9267    1.4277 H         1 <0>         0.0000
     42 H20         7.3251   -2.6069    3.3666 H         1 <0>         0.0000
     43 H21         6.7588   -1.1249    2.6110 H         1 <0>         0.0000
     44 H22         7.3992   -2.0872    0.2584 H         1 <0>         0.0000
     45 H23         8.0331   -3.4907    1.1269 H         1 <0>         0.0000
     46 H24         5.7385   -3.9535    2.0094 H         1 <0>         0.0000
     47 H25         2.6512   -2.6760   -0.6903 H         1 <0>         0.0000
     48 H26         4.4913   -1.4577    3.6101 H         1 <0>         0.0000
     49 H27         1.2283   -1.0078   -0.8054 H         1 <0>         0.0000
     50 H28         3.8157   -4.1378    1.3829 H         1 <0>         0.0000
@<TRIPOS>BOND
     1    1   18 am
     2    1   20 2
     3    2   12 1
     4    2   17 am
     5    2   21 2
     6    3   13 1
     7    3   16 am
     8    3   22 2
     9    4   14 1
    10    5   14 1
    11    6   15 1
    12    7   15 1
    13    8   15 1
    14    9   16 1
    15   10   12 1
    16   10   14 1
    17   11   12 1
    18   11   18 1
    19   13   15 1
    20   13   17 1
    21   18   19 1
    22    1   23 1
    23    4   24 1
    24    4   25 1
    25    4   26 1
    26    5   27 1
    27    5   28 1
    28    5   29 1
    29    6   30 1
    30    6   31 1
    31    6   32 1
    32    7   33 1
    33    7   34 1
    34    7   35 1
    35    8   36 1
    36    8   37 1
    37    8   38 1
    38    9   39 1
    39    9   40 1
    40    9   41 1
    41   10   42 1
    42   10   43 1
    43   11   44 1
    44   11   45 1
    45   12   46 1
    46   13   47 1
    47   14   48 1
    48   16   49 1
    49   17   50 1
@<TRIPOS>MOLECULE
LIGAND
   50    49     0     0     0
SMALL
NO_CHARGES

@<TRIPOS>ATOM
      1 C1          6.8494   -5.0043    4.5318 C.2       1 <0>         0.0000
      2 C2          4.7609   -2.3304    1.0158 C.2       1 <0>         0.0000
      3 C3          1.3743   -3.6105    1.2141 C.2       1 <0>         0.0000
      4 C4          8.5547   -3.1178   -0.0742 C.3       1 <0>         0.0000
      5 C5          7.6782   -5.2829   -0.9666 C.3       1 <0>         0.0000
      6 C6          2.9144   -2.0789   -1.9851 C.3       1 <0>         0.0000
      7 C7          3.2618   -4.4861   -1.4495 C.3       1 <0>         0.0000
      8 C8          0.9399   -3.5730   -1.6309 C.3       1 <0>         0.0000
      9 C9         -0.8899   -3.3247    2.1744 C.3       1 <0>         0.0000
     10 C10         6.4903   -4.2069    0.9698 C.3       1 <0>         0.0000
     11 C11         5.6912   -3.2135    3.1734 C.3       1 <0>         0.0000
     12 C12         5.9953   -2.9363    1.6910 C.3       1 <0>         0.0000
     13 C13         2.4245   -2.8999    0.3599 C.3       1 <0>         0.0000
     14 C14         7.2936   -3.9469   -0.3237 C.3       1 <0>         0.0000
     15 C15         2.3718   -3.2623   -1.1540 C.3       1 <0>         0.0000
     16 N1          0.2223   -2.8565    1.3827 N.am      1 <0>         0.0000
     17 N2          3.6959   -3.2182    0.9688 N.am      1 <0>         0.0000
     18 N3          6.7994   -3.7930    3.8839 N.am      1 <0>         0.0000
     19 O1          7.9410   -3.0158    3.9021 O.3       1 <0>         0.0000
     20 O2          5.9362   -5.8199    4.6181 O.2       1 <0>         0.0000
     21 O3          4.7482   -1.1914    0.5542 O.2       1 <0>         0.0000
     22 O4          1.5569   -4.7218    1.7089 O.2       1 <0>         0.0000
     23 H1          7.8269   -5.2131    5.0014 H         1 <0>         0.0000
     24 H2          9.2158   -3.6219    0.6392 H         1 <0>         0.0000
     25 H3          8.3079   -2.1320    0.3339 H         1 <0>         0.0000
     26 H4          9.1275   -2.9738   -0.9949 H         1 <0>         0.0000
     27 H5          8.3104   -5.8785   -0.2992 H         1 <0>         0.0000
     28 H6          6.7859   -5.8716   -1.2045 H         1 <0>         0.0000
     29 H7          8.2280   -5.1221   -1.9000 H         1 <0>         0.0000
     30 H8          2.3199   -1.1739   -1.8172 H         1 <0>         0.0000
     31 H9          2.8994   -2.2973   -3.0585 H         1 <0>         0.0000
     32 H10         3.9518   -1.8484   -1.7158 H         1 <0>         0.0000
     33 H11         2.9258   -5.3642   -0.8858 H         1 <0>         0.0000
     34 H12         4.3049   -4.3063   -1.1689 H         1 <0>         0.0000
     35 H13         3.2353   -4.7468   -2.5135 H         1 <0>         0.0000
     36 H14         0.5126   -4.4101   -1.0664 H         1 <0>         0.0000
     37 H15         0.9176   -3.8503   -2.6901 H         1 <0>         0.0000
     38 H16         0.2727   -2.7163   -1.4916 H         1 <0>         0.0000
     39 H17        -1.5882   -3.8849    1.5471 H         1 <0>         0.0000
     40 H18        -1.4189   -2.4783    2.6208 H         1 <0>         0.0000
     41 H19        -0.5348   -3.9781    2.9759 H         1 <0>         0.0000
     42 H20         7.1160   -4.7876    1.6607 H         1 <0>         0.0000
     43 H21         5.6310   -4.8442    0.7228 H         1 <0>         0.0000
     44 H22         5.4249   -2.2852    3.6898 H         1 <0>         0.0000
     45 H23         4.8500   -3.9063    3.2803 H         1 <0>         0.0000
     46 H24         6.7931   -2.1847    1.6686 H         1 <0>         0.0000
     47 H25         2.3043   -1.8161    0.4837 H         1 <0>         0.0000
     48 H26         6.6656   -3.4052   -1.0405 H         1 <0>         0.0000
     49 H27         0.1595   -1.9470    0.9352 H         1 <0>         0.0000
     50 H28         3.8157   -4.1378    1.3829 H         1 <0>         0.0000
@<TRIPOS>BOND
     1    1   18 am
     2    1   20 2
     3    2   12 1
     4    2   17 am
     5    2   21 2
     6    3   13 1
     7    3   16 am
     8    3   22 2
     9    4   14 1
    10    5   14 1
    11    6   15 1
    12    7   15 1
    13    8   15 1
    14    9   16 1
    15   10   12 1
    16   10   14 1
    17   11   12 1
    18   11   18 1
    19   13   15 1
    20   13   17 1
    21   18   19 1
    22    1   23 1
    23    4   24 1
    24    4   25 1
    25    4   26 1
    26    5   27 1
    27    5   28 1
    28    5   29 1
    29    6   30 1
    30    6   31 1
    31    6   32 1
    32    7   33 1
    33    7   34 1
    34    7   35 1
    35    8   36 1
    36    8   37 1
    37    8   38 1
    38    9   39 1
    39    9   40 1
    40    9   41 1
    41   10   42 1
    42   10   43 1
    43   11   44 1
    44   11   45 1
    45   12   46 1
    46   13   47 1
    47   14   48 1
    48   16   49 1
    49   17   50 1
@<TRIPOS>MOLECULE
LIGAND
   50    49     0     0     0
SMALL
NO_CHARGES

@<TRIPOS>ATOM
      1 C1          8.8786   -4.2413    1.6879 C.2       1 <0>         0.0000
      2 C2          4.7609   -2.3304    1.0158 C.2       1 <0>         0.0000
      3 C3          1.3743   -3.6105    1.2141 C.2       1 <0>         0.0000
      4 C4          5.4286   -5.0551    3.9022 C.3       1 <0>         0.0000
      5 C5          5.1681   -3.1669    5.5205 C.3       1 <0>         0.0000
      6 C6          3.5112   -2.5312   -1.8976 C.3       1 <0>         0.0000
      7 C7          2.5798   -4.7765   -1.3563 C.3       1 <0>         0.0000
      8 C8          1.0336   -2.8618   -1.8044 C.3       1 <0>         0.0000
      9 C9         -0.8899   -3.3247    2.1744 C.3       1 <0>         0.0000
     10 C10         6.0212   -2.6662    3.2096 C.3       1 <0>         0.0000
     11 C11         7.2695   -2.4142    1.0053 C.3       1 <0>         0.0000
     12 C12         5.9953   -2.9363    1.6910 C.3       1 <0>         0.0000
     13 C13         2.4245   -2.8999    0.3599 C.3       1 <0>         0.0000
     14 C14         5.0884   -3.5706    4.0452 C.3       1 <0>         0.0000
     15 C15         2.3718   -3.2623   -1.1540 C.3       1 <0>         0.0000
     16 N1          0.2223   -2.8565    1.3827 N.am      1 <0>         0.0000
     17 N2          3.6959   -3.2182    0.9688 N.am      1 <0>         0.0000
     18 N3          8.4808   -2.9296    1.5848 N.am      1 <0>         0.0000
     19 O1          9.3307   -1.9667    2.0928 O.3       1 <0>         0.0000
     20 O2          9.9227   -4.6461    2.1905 O.2       1 <0>         0.0000
     21 O3          4.7482   -1.1914    0.5542 O.2       1 <0>         0.0000
     22 O4          1.5569   -4.7218    1.7089 O.2       1 <0>         0.0000
     23 H1          8.1529   -4.9569    1.2626 H         1 <0>         0.0000
     24 H2          6.4596   -5.2491    4.2175 H         1 <0>         0.0000
     25 H3          5.3256   -5.3883    2.8641 H         1 <0>         0.0000
     26 H4          4.7804   -5.6761    4.5273 H         1 <0>         0.0000
     27 H5          6.1838   -3.2884    5.9121 H         1 <0>         0.0000
     28 H6          4.8754   -2.1200    5.6540 H         1 <0>         0.0000
     29 H7          4.4947   -3.7797    6.1290 H         1 <0>         0.0000
     30 H8          3.4182   -1.4447   -1.7906 H         1 <0>         0.0000
     31 H9          3.5120   -2.7653   -2.9677 H         1 <0>         0.0000
     32 H10         4.4918   -2.8203   -1.5020 H         1 <0>         0.0000
     33 H11         1.7979   -5.3538   -0.8491 H         1 <0>         0.0000
     34 H12         3.5395   -5.1121   -0.9494 H         1 <0>         0.0000
     35 H13         2.5489   -5.0416   -2.4191 H         1 <0>         0.0000
     36 H14         0.1926   -3.3589   -1.3070 H         1 <0>         0.0000
     37 H15         0.9978   -3.1431   -2.8622 H         1 <0>         0.0000
     38 H16         0.8573   -1.7835   -1.7352 H         1 <0>         0.0000
     39 H17        -1.5882   -3.8849    1.5471 H         1 <0>         0.0000
     40 H18        -1.4189   -2.4783    2.6208 H         1 <0>         0.0000
     41 H19        -0.5348   -3.9781    2.9759 H         1 <0>         0.0000
     42 H20         7.0493   -2.7891    3.5757 H         1 <0>         0.0000
     43 H21         5.7503   -1.6191    3.3985 H         1 <0>         0.0000
     44 H22         7.2745   -2.6901   -0.0546 H         1 <0>         0.0000
     45 H23         7.3301   -1.3226    1.0647 H         1 <0>         0.0000
     46 H24         5.9704   -4.0198    1.5260 H         1 <0>         0.0000
     47 H25         2.3043   -1.8161    0.4837 H         1 <0>         0.0000
     48 H26         4.0519   -3.4254    3.7195 H         1 <0>         0.0000
     49 H27         0.1595   -1.9470    0.9352 H         1 <0>         0.0000
     50 H28         3.8157   -4.1378    1.3829 H         1 <0>         0.0000
@<TRIPOS>BOND
     1    1   18 am
     2    1   20 2
     3    2   12 1
     4    2   17 am
     5    2   21 2
     6    3   13 1
     7    3   16 am
     8    3   22 2
     9    4   14 1
    10    5   14 1
    11    6   15 1
    12    7   15 1
    13    8   15 1
    14    9   16 1
    15   10   12 1
    16   10   14 1
    17   11   12 1
    18   11   18 1
    19   13   15 1
    20   13   17 1
    21   18   19 1
    22    1   23 1
    23    4   24 1
    24    4   25 1
    25    4   26 1
    26    5   27 1
    27    5   28 1
    28    5   29 1
    29    6   30 1
    30    6   31 1
    31    6   32 1
    32    7   33 1
    33    7   34 1
    34    7   35 1
    35    8   36 1
    36    8   37 1
    37    8   38 1
    38    9   39 1
    39    9   40 1
    40    9   41 1
    41   10   42 1
    42   10   43 1
    43   11   44 1
    44   11   45 1
    45   12   46 1
    46   13   47 1
    47   14   48 1
    48   16   49 1
    49   17   50 1
@<TRIPOS>MOLECULE
LIGAND
   50    49     0     0     0
SMALL
NO_CHARGES

@<TRIPOS>ATOM
      1 C1          9.0094   -4.5043    1.6394 C.2       1 <0>         0.0000
      2 C2          4.7609   -2.3304    1.0158 C.2       1 <0>         0.0000
      3 C3          1.4114   -2.9063    1.5049 C.2       1 <0>         0.0000
      4 C4          5.5916   -1.8934    4.5978 C.3       1 <0>         0.0000
      5 C5          7.0929    0.0222    4.0244 C.3       1 <0>         0.0000
      6 C6          1.9716   -3.0346   -2.1281 C.3       1 <0>         0.0000
      7 C7          3.1629   -4.9155   -1.0124 C.3       1 <0>         0.0000
      8 C8          0.7197   -4.5702   -0.6013 C.3       1 <0>         0.0000
      9 C9         -0.5781   -1.7107    2.3670 C.3       1 <0>         0.0000
     10 C10         6.8665   -1.8668    2.3816 C.3       1 <0>         0.0000
     11 C11         6.8055   -3.7427    0.6616 C.3       1 <0>         0.0000
     12 C12         5.9953   -2.9363    1.6910 C.3       1 <0>         0.0000
     13 C13         2.4245   -2.8999    0.3599 C.3       1 <0>         0.0000
     14 C14         6.1374   -1.0321    3.4575 C.3       1 <0>         0.0000
     15 C15         2.0646   -3.8508   -0.8201 C.3       1 <0>         0.0000
     16 N1          0.4604   -1.9038    1.3835 N.am      1 <0>         0.0000
     17 N2          3.6959   -3.2182    0.9688 N.am      1 <0>         0.0000
     18 N3          7.7018   -4.6947    1.2608 N.am      1 <0>         0.0000
     19 O1          7.1560   -5.9460    1.4704 O.3       1 <0>         0.0000
     20 O2          9.6534   -3.4652    1.5292 O.2       1 <0>         0.0000
     21 O3          4.7482   -1.1914    0.5542 O.2       1 <0>         0.0000
     22 O4          1.4623   -3.7076    2.4368 O.2       1 <0>         0.0000
     23 H1          9.4767   -5.4035    2.0784 H         1 <0>         0.0000
     24 H2          6.4006   -2.4456    5.0885 H         1 <0>         0.0000
     25 H3          4.8609   -2.6219    4.2310 H         1 <0>         0.0000
     26 H4          5.1097   -1.2817    5.3659 H         1 <0>         0.0000
     27 H5          7.9623   -0.4436    4.5008 H         1 <0>         0.0000
     28 H6          7.4545    0.6861    3.2321 H         1 <0>         0.0000
     29 H7          6.5886    0.6429    4.7727 H         1 <0>         0.0000
     30 H8          1.2033   -2.2569   -2.0537 H         1 <0>         0.0000
     31 H9          1.7252   -3.6703   -2.9855 H         1 <0>         0.0000
     32 H10         2.9231   -2.5396   -2.3546 H         1 <0>         0.0000
     33 H11         3.2779   -5.5312   -0.1127 H         1 <0>         0.0000
     34 H12         4.1381   -4.4603   -1.2147 H         1 <0>         0.0000
     35 H13         2.9214   -5.5874   -1.8436 H         1 <0>         0.0000
     36 H14         0.7392   -5.1646    0.3197 H         1 <0>         0.0000
     37 H15         0.4883   -5.2543   -1.4246 H         1 <0>         0.0000
     38 H16        -0.1084   -3.8600   -0.5090 H         1 <0>         0.0000
     39 H17        -1.4589   -2.3023    2.1044 H         1 <0>         0.0000
     40 H18        -0.8634   -0.6562    2.4133 H         1 <0>         0.0000
     41 H19        -0.2264   -2.0222    3.3542 H         1 <0>         0.0000
     42 H20         7.7322   -2.3581    2.8457 H         1 <0>         0.0000
     43 H21         7.2705   -1.1813    1.6250 H         1 <0>         0.0000
     44 H22         6.1354   -4.3010   -0.0008 H         1 <0>         0.0000
     45 H23         7.4165   -3.0830    0.0367 H         1 <0>         0.0000
     46 H24         5.6479   -3.6501    2.4472 H         1 <0>         0.0000
     47 H25         2.5279   -1.8729   -0.0129 H         1 <0>         0.0000
     48 H26         5.2955   -0.5008    2.9986 H         1 <0>         0.0000
     49 H27         0.4960   -1.2867    0.5777 H         1 <0>         0.0000
     50 H28         3.8157   -4.1378    1.3829 H         1 <0>         0.0000
@<TRIPOS>BOND
     1    1   18 am
     2    1   20 2
     3    2   12 1
     4    2   17 am
     5    2   21 2
     6    3   13 1
     7    3   16 am
     8    3   22 2
     9    4   14 1
    10    5   14 1
    11    6   15 1
    12    7   15 1
    13    8   15 1
    14    9   16 1
    15   10   12 1
    16   10   14 1
    17   11   12 1
    18   11   18 1
    19   13   15 1
    20   13   17 1
    21   18   19 1
    22    1   23 1
    23    4   24 1
    24    4   25 1
    25    4   26 1
    26    5   27 1
    27    5   28 1
    28    5   29 1
    29    6   30 1
    30    6   31 1
    31    6   32 1
    32    7   33 1
    33    7   34 1
    34    7   35 1
    35    8   36 1
    36    8   37 1
    37    8   38 1
    38    9   39 1
    39    9   40 1
    40    9   41 1
    41   10   42 1
    42   10   43 1
    43   11   44 1
    44   11   45 1
    45   12   46 1
    46   13   47 1
    47   14   48 1
    48   16   49 1
    49   17   50 1
@<TRIPOS>MOLECULE
LIGAND
   50    49     0     0     0
SMALL
NO_CHARGES

@<TRIPOS>ATOM
      1 C1          4.1712   -1.7701    4.5874 C.2       1 <0>         0.0000
      2 C2          4.7609   -2.3304    1.0158 C.2       1 <0>         0.0000
      3 C3          1.4114   -2.9063    1.5049 C.2       1 <0>         0.0000
      4 C4          8.5547   -3.1178   -0.0742 C.3       1 <0>         0.0000
      5 C5          7.6782   -5.2829   -0.9666 C.3       1 <0>         0.0000
      6 C6          3.1857   -3.8003   -1.8813 C.3       1 <0>         0.0000
      7 C7          1.9543   -5.3076   -0.3278 C.3       1 <0>         0.0000
      8 C8          0.7370   -3.4626   -1.4991 C.3       1 <0>         0.0000
      9 C9          0.5462   -1.5170    3.3628 C.3       1 <0>         0.0000
     10 C10         6.4903   -4.2069    0.9698 C.3       1 <0>         0.0000
     11 C11         5.6912   -3.2135    3.1734 C.3       1 <0>         0.0000
     12 C12         5.9953   -2.9363    1.6910 C.3       1 <0>         0.0000
     13 C13         2.4245   -2.8999    0.3599 C.3       1 <0>         0.0000
     14 C14         7.2936   -3.9469   -0.3237 C.3       1 <0>         0.0000
     15 C15         2.0646   -3.8508   -0.8201 C.3       1 <0>         0.0000
     16 N1          1.4084   -1.7198    2.2232 N.am      1 <0>         0.0000
     17 N2          3.6959   -3.2182    0.9688 N.am      1 <0>         0.0000
     18 N3          5.3407   -2.0316    3.9142 N.am      1 <0>         0.0000
     19 O1          6.3174   -1.0552    3.9355 O.3       1 <0>         0.0000
     20 O2          3.2011   -2.5170    4.6749 O.2       1 <0>         0.0000
     21 O3          4.7482   -1.1914    0.5542 O.2       1 <0>         0.0000
     22 O4          0.6993   -3.8762    1.7607 O.2       1 <0>         0.0000
     23 H1          4.1565   -0.7806    5.0777 H         1 <0>         0.0000
     24 H2          9.2158   -3.6219    0.6392 H         1 <0>         0.0000
     25 H3          8.3079   -2.1320    0.3339 H         1 <0>         0.0000
     26 H4          9.1275   -2.9738   -0.9949 H         1 <0>         0.0000
     27 H5          8.3104   -5.8785   -0.2992 H         1 <0>         0.0000
     28 H6          6.7859   -5.8716   -1.2045 H         1 <0>         0.0000
     29 H7          8.2280   -5.1221   -1.9000 H         1 <0>         0.0000
     30 H8          3.3133   -2.7845   -2.2720 H         1 <0>         0.0000
     31 H9          2.9723   -4.4622   -2.7277 H         1 <0>         0.0000
     32 H10         4.1465   -4.1154   -1.4578 H         1 <0>         0.0000
     33 H11         1.1705   -5.4095    0.4319 H         1 <0>         0.0000
     34 H12         2.8879   -5.6535    0.1281 H         1 <0>         0.0000
     35 H13         1.7055   -5.9859   -1.1517 H         1 <0>         0.0000
     36 H14        -0.0909   -3.4848   -0.7807 H         1 <0>         0.0000
     37 H15         0.4812   -4.1517   -2.3109 H         1 <0>         0.0000
     38 H16         0.7762   -2.4505   -1.9146 H         1 <0>         0.0000
     39 H17        -0.4080   -1.0916    3.0410 H         1 <0>         0.0000
     40 H18         1.0149   -0.8317    4.0742 H         1 <0>         0.0000
     41 H19         0.3553   -2.4685    3.8664 H         1 <0>         0.0000
     42 H20         7.1160   -4.7876    1.6607 H         1 <0>         0.0000
     43 H21         5.6310   -4.8442    0.7228 H         1 <0>         0.0000
     44 H22         4.8556   -3.9151    3.2682 H         1 <0>         0.0000
     45 H23         6.5563   -3.6574    3.6769 H         1 <0>         0.0000
     46 H24         6.7931   -2.1847    1.6686 H         1 <0>         0.0000
     47 H25         2.5279   -1.8729   -0.0129 H         1 <0>         0.0000
     48 H26         6.6656   -3.4052   -1.0405 H         1 <0>         0.0000
     49 H27         2.0322   -0.9706    1.9386 H         1 <0>         0.0000
     50 H28         3.8157   -4.1378    1.3829 H         1 <0>         0.0000
@<TRIPOS>BOND
     1    1   18 am
     2    1   20 2
     3    2   12 1
     4    2   17 am
     5    2   21 2
     6    3   13 1
     7    3   16 am
     8    3   22 2
     9    4   14 1
    10    5   14 1
    11    6   15 1
    12    7   15 1
    13    8   15 1
    14    9   16 1
    15   10   12 1
    16   10   14 1
    17   11   12 1
    18   11   18 1
    19   13   15 1
    20   13   17 1
    21   18   19 1
    22    1   23 1
    23    4   24 1
    24    4   25 1
    25    4   26 1
    26    5   27 1
    27    5   28 1
    28    5   29 1
    29    6   30 1
    30    6   31 1
    31    6   32 1
    32    7   33 1
    33    7   34 1
    34    7   35 1
    35    8   36 1
    36    8   37 1
    37    8   38 1
    38    9   39 1
    39    9   40 1
    40    9   41 1
    41   10   42 1
    42   10   43 1
    43   11   44 1
    44   11   45 1
    45   12   46 1
    46   13   47 1
    47   14   48 1
    48   16   49 1
    49   17   50 1
@<TRIPOS>MOLECULE
LIGAND
   50    49     0     0     0
SMALL
NO_CHARGES

@<TRIPOS>ATOM
      1 C1          7.5514   -0.8712   -0.5136 C.2       1 <0>         0.0000
      2 C2          4.7609   -2.3304    1.0158 C.2       1 <0>         0.0000
      3 C3          1.6238   -2.1763    1.4428 C.2       1 <0>         0.0000
      4 C4          4.8998   -3.3220    4.5808 C.3       1 <0>         0.0000
      5 C5          5.9126   -1.1117    5.1647 C.3       1 <0>         0.0000
      6 C6          2.6382   -4.8237   -1.2732 C.3       1 <0>         0.0000
      7 C7          1.4139   -5.1834    0.8654 C.3       1 <0>         0.0000
      8 C8          0.3871   -3.7862   -0.9377 C.3       1 <0>         0.0000
      9 C9          0.0532   -0.2939    1.7895 C.3       1 <0>         0.0000
     10 C10         6.4405   -2.1272    2.9267 C.3       1 <0>         0.0000
     11 C11         7.1342   -3.0688    0.6654 C.3       1 <0>         0.0000
     12 C12         5.9953   -2.9363    1.6910 C.3       1 <0>         0.0000
     13 C13         2.4245   -2.8999    0.3599 C.3       1 <0>         0.0000
     14 C14         5.3645   -1.9750    4.0244 C.3       1 <0>         0.0000
     15 C15         1.7114   -4.1488   -0.2382 C.3       1 <0>         0.0000
     16 N1          0.8675   -1.1285    0.9389 N.am      1 <0>         0.0000
     17 N2          3.6959   -3.2182    0.9688 N.am      1 <0>         0.0000
     18 N3          7.8323   -1.8342    0.4261 N.am      1 <0>         0.0000
     19 O1          8.9139   -1.6145    1.2565 O.3       1 <0>         0.0000
     20 O2          8.1707    0.1737   -0.6902 O.2       1 <0>         0.0000
     21 O3          4.7482   -1.1914    0.5542 O.2       1 <0>         0.0000
     22 O4          1.6741   -2.4892    2.6314 O.2       1 <0>         0.0000
     23 H1          6.6757   -1.1109   -1.1424 H         1 <0>         0.0000
     24 H2          5.7423   -3.8772    5.0075 H         1 <0>         0.0000
     25 H3          4.4501   -3.9417    3.7978 H         1 <0>         0.0000
     26 H4          4.1642   -3.1925    5.3800 H         1 <0>         0.0000
     27 H5          6.7922   -1.5734    5.6261 H         1 <0>         0.0000
     28 H6          6.2016   -0.1209    4.7985 H         1 <0>         0.0000
     29 H7          5.1564   -0.9697    5.9440 H         1 <0>         0.0000
     30 H8          2.8872   -4.1345   -2.0879 H         1 <0>         0.0000
     31 H9          2.1738   -5.7124   -1.7140 H         1 <0>         0.0000
     32 H10         3.5794   -5.1449   -0.8119 H         1 <0>         0.0000
     33 H11         0.7565   -4.7621    1.6349 H         1 <0>         0.0000
     34 H12         2.3282   -5.5113    1.3711 H         1 <0>         0.0000
     35 H13         0.9158   -6.0685    0.4541 H         1 <0>         0.0000
     36 H14        -0.3050   -3.3025   -0.2384 H         1 <0>         0.0000
     37 H15        -0.1179   -4.6740   -1.3329 H         1 <0>         0.0000
     38 H16         0.5457   -3.0900   -1.7676 H         1 <0>         0.0000
     39 H17        -0.9522   -0.7139    1.8767 H         1 <0>         0.0000
     40 H18        -0.0213    0.7135    1.3710 H         1 <0>         0.0000
     41 H19         0.4945   -0.2269    2.7876 H         1 <0>         0.0000
     42 H20         7.3251   -2.6069    3.3666 H         1 <0>         0.0000
     43 H21         6.7588   -1.1249    2.6110 H         1 <0>         0.0000
     44 H22         7.8751   -3.7989    1.0081 H         1 <0>         0.0000
     45 H23         6.7546   -3.4103   -0.3032 H         1 <0>         0.0000
     46 H24         5.7385   -3.9535    2.0094 H         1 <0>         0.0000
     47 H25         2.6549   -2.1876   -0.4426 H         1 <0>         0.0000
     48 H26         4.4913   -1.4577    3.6101 H         1 <0>         0.0000
     49 H27         0.8872   -0.9429   -0.0594 H         1 <0>         0.0000
     50 H28         3.8157   -4.1378    1.3829 H         1 <0>         0.0000
@<TRIPOS>BOND
     1    1   18 am
     2    1   20 2
     3    2   12 1
     4    2   17 am
     5    2   21 2
     6    3   13 1
     7    3   16 am
     8    3   22 2
     9    4   14 1
    10    5   14 1
    11    6   15 1
    12    7   15 1
    13    8   15 1
    14    9   16 1
    15   10   12 1
    16   10   14 1
    17   11   12 1
    18   11   18 1
    19   13   15 1
    20   13   17 1
    21   18   19 1
    22    1   23 1
    23    4   24 1
    24    4   25 1
    25    4   26 1
    26    5   27 1
    27    5   28 1
    28    5   29 1
    29    6   30 1
    30    6   31 1
    31    6   32 1
    32    7   33 1
    33    7   34 1
    34    7   35 1
    35    8   36 1
    36    8   37 1
    37    8   38 1
    38    9   39 1
    39    9   40 1
    40    9   41 1
    41   10   42 1
    42   10   43 1
    43   11   44 1
    44   11   45 1
    45   12   46 1
    46   13   47 1
    47   14   48 1
    48   16   49 1
    49   17   50 1
@<TRIPOS>MOLECULE
LIGAND
   50    49     0     0     0
SMALL
NO_CHARGES

@<TRIPOS>ATOM
      1 C1          6.8494   -5.0043    4.5318 C.2       1 <0>         0.0000
      2 C2          4.7609   -2.3304    1.0158 C.2       1 <0>         0.0000
      3 C3          1.6238   -2.1763    1.4428 C.2       1 <0>         0.0000
      4 C4          7.9668   -2.9805   -0.7195 C.3       1 <0>         0.0000
      5 C5          7.2752   -5.3485   -1.1277 C.3       1 <0>         0.0000
      6 C6          2.6382   -4.8237   -1.2732 C.3       1 <0>         0.0000
      7 C7          1.4139   -5.1834    0.8654 C.3       1 <0>         0.0000
      8 C8          0.3871   -3.7862   -0.9377 C.3       1 <0>         0.0000
      9 C9          1.3383    0.0348    2.5199 C.3       1 <0>         0.0000
     10 C10         6.4903   -4.2069    0.9698 C.3       1 <0>         0.0000
     11 C11         5.6912   -3.2135    3.1734 C.3       1 <0>         0.0000
     12 C12         5.9953   -2.9363    1.6910 C.3       1 <0>         0.0000
     13 C13         2.4245   -2.8999    0.3599 C.3       1 <0>         0.0000
     14 C14         6.8518   -4.0083   -0.5189 C.3       1 <0>         0.0000
     15 C15         1.7114   -4.1488   -0.2382 C.3       1 <0>         0.0000
     16 N1          1.9549   -0.8333    1.5455 N.am      1 <0>         0.0000
     17 N2          3.6959   -3.2182    0.9688 N.am      1 <0>         0.0000
     18 N3          6.7994   -3.7930    3.8839 N.am      1 <0>         0.0000
     19 O1          7.9410   -3.0158    3.9021 O.3       1 <0>         0.0000
     20 O2          5.9362   -5.8199    4.6181 O.2       1 <0>         0.0000
     21 O3          4.7482   -1.1914    0.5542 O.2       1 <0>         0.0000
     22 O4          0.7950   -2.7447    2.1522 O.2       1 <0>         0.0000
     23 H1          7.8269   -5.2131    5.0014 H         1 <0>         0.0000
     24 H2          8.8753   -3.2848   -0.1883 H         1 <0>         0.0000
     25 H3          7.6713   -1.9951   -0.3441 H         1 <0>         0.0000
     26 H4          8.2323   -2.8793   -1.7758 H         1 <0>         0.0000
     27 H5          8.1599   -5.7527   -0.6240 H         1 <0>         0.0000
     28 H6          6.4698   -6.0859   -1.0440 H         1 <0>         0.0000
     29 H7          7.5125   -5.2358   -2.1909 H         1 <0>         0.0000
     30 H8          2.8872   -4.1345   -2.0879 H         1 <0>         0.0000
     31 H9          2.1738   -5.7124   -1.7140 H         1 <0>         0.0000
     32 H10         3.5794   -5.1449   -0.8119 H         1 <0>         0.0000
     33 H11         0.7565   -4.7621    1.6349 H         1 <0>         0.0000
     34 H12         2.3282   -5.5113    1.3711 H         1 <0>         0.0000
     35 H13         0.9158   -6.0685    0.4541 H         1 <0>         0.0000
     36 H14        -0.3050   -3.3025   -0.2384 H         1 <0>         0.0000
     37 H15        -0.1179   -4.6740   -1.3329 H         1 <0>         0.0000
     38 H16         0.5457   -3.0900   -1.7676 H         1 <0>         0.0000
     39 H17         0.4402    0.4941    2.0989 H         1 <0>         0.0000
     40 H18         2.0331    0.8259    2.8147 H         1 <0>         0.0000
     41 H19         1.0580   -0.5350    3.4100 H         1 <0>         0.0000
     42 H20         7.3727   -4.5944    1.4964 H         1 <0>         0.0000
     43 H21         5.7222   -4.9884    1.0394 H         1 <0>         0.0000
     44 H22         5.4249   -2.2852    3.6898 H         1 <0>         0.0000
     45 H23         4.8500   -3.9063    3.2803 H         1 <0>         0.0000
     46 H24         6.7931   -2.1847    1.6686 H         1 <0>         0.0000
     47 H25         2.6549   -2.1876   -0.4426 H         1 <0>         0.0000
     48 H26         5.9671   -3.6628   -1.0661 H         1 <0>         0.0000
     49 H27         2.6527   -0.4488    0.9157 H         1 <0>         0.0000
     50 H28         3.8157   -4.1378    1.3829 H         1 <0>         0.0000
@<TRIPOS>BOND
     1    1   18 am
     2    1   20 2
     3    2   12 1
     4    2   17 am
     5    2   21 2
     6    3   13 1
     7    3   16 am
     8    3   22 2
     9    4   14 1
    10    5   14 1
    11    6   15 1
    12    7   15 1
    13    8   15 1
    14    9   16 1
    15   10   12 1
    16   10   14 1
    17   11   12 1
    18   11   18 1
    19   13   15 1
    20   13   17 1
    21   18   19 1
    22    1   23 1
    23    4   24 1
    24    4   25 1
    25    4   26 1
    26    5   27 1
    27    5   28 1
    28    5   29 1
    29    6   30 1
    30    6   31 1
    31    6   32 1
    32    7   33 1
    33    7   34 1
    34    7   35 1
    35    8   36 1
    36    8   37 1
    37    8   38 1
    38    9   39 1
    39    9   40 1
    40    9   41 1
    41   10   42 1
    42   10   43 1
    43   11   44 1
    44   11   45 1
    45   12   46 1
    46   13   47 1
    47   14   48 1
    48   16   49 1
    49   17   50 1
@<TRIPOS>MOLECULE
LIGAND
   50    49     0     0     0
SMALL
NO_CHARGES

@<TRIPOS>ATOM
      1 C1          7.1719   -2.7895   -1.4934 C.2       1 <0>         0.0000
      2 C2          4.7609   -2.3304    1.0158 C.2       1 <0>         0.0000
      3 C3          1.6238   -2.1763    1.4428 C.2       1 <0>         0.0000
      4 C4          5.4286   -5.0551    3.9022 C.3       1 <0>         0.0000
      5 C5          5.1681   -3.1669    5.5205 C.3       1 <0>         0.0000
      6 C6          2.6382   -4.8237   -1.2732 C.3       1 <0>         0.0000
      7 C7          1.4139   -5.1834    0.8654 C.3       1 <0>         0.0000
      8 C8          0.3871   -3.7862   -0.9377 C.3       1 <0>         0.0000
      9 C9          1.1427   -2.2044    3.8715 C.3       1 <0>         0.0000
     10 C10         6.0212   -2.6662    3.2096 C.3       1 <0>         0.0000
     11 C11         7.2695   -2.4142    1.0053 C.3       1 <0>         0.0000
     12 C12         5.9953   -2.9363    1.6910 C.3       1 <0>         0.0000
     13 C13         2.4245   -2.8999    0.3599 C.3       1 <0>         0.0000
     14 C14         5.0884   -3.5706    4.0452 C.3       1 <0>         0.0000
     15 C15         1.7114   -4.1488   -0.2382 C.3       1 <0>         0.0000
     16 N1          1.8198   -2.7177    2.7048 N.am      1 <0>         0.0000
     17 N2          3.6959   -3.2182    0.9688 N.am      1 <0>         0.0000
     18 N3          7.5808   -3.1022   -0.2189 N.am      1 <0>         0.0000
     19 O1          8.3919   -4.2098   -0.0662 O.3       1 <0>         0.0000
     20 O2          6.4538   -1.8474   -1.8149 O.2       1 <0>         0.0000
     21 O3          4.7482   -1.1914    0.5542 O.2       1 <0>         0.0000
     22 O4          0.8744   -1.2316    1.1999 O.2       1 <0>         0.0000
     23 H1          7.5545   -3.4840   -2.2621 H         1 <0>         0.0000
     24 H2          6.4596   -5.2491    4.2175 H         1 <0>         0.0000
     25 H3          5.3256   -5.3883    2.8641 H         1 <0>         0.0000
     26 H4          4.7804   -5.6761    4.5273 H         1 <0>         0.0000
     27 H5          6.1838   -3.2884    5.9121 H         1 <0>         0.0000
     28 H6          4.8754   -2.1200    5.6540 H         1 <0>         0.0000
     29 H7          4.4947   -3.7797    6.1290 H         1 <0>         0.0000
     30 H8          2.8872   -4.1345   -2.0879 H         1 <0>         0.0000
     31 H9          2.1738   -5.7124   -1.7140 H         1 <0>         0.0000
     32 H10         3.5794   -5.1449   -0.8119 H         1 <0>         0.0000
     33 H11         0.7565   -4.7621    1.6349 H         1 <0>         0.0000
     34 H12         2.3282   -5.5113    1.3711 H         1 <0>         0.0000
     35 H13         0.9158   -6.0685    0.4541 H         1 <0>         0.0000
     36 H14        -0.3050   -3.3025   -0.2384 H         1 <0>         0.0000
     37 H15        -0.1179   -4.6740   -1.3329 H         1 <0>         0.0000
     38 H16         0.5457   -3.0900   -1.7676 H         1 <0>         0.0000
     39 H17         1.7401   -1.4157    4.3360 H         1 <0>         0.0000
     40 H18         0.9874   -3.0042    4.6007 H         1 <0>         0.0000
     41 H19         0.1698   -1.7909    3.5925 H         1 <0>         0.0000
     42 H20         7.0493   -2.7891    3.5757 H         1 <0>         0.0000
     43 H21         5.7503   -1.6191    3.3985 H         1 <0>         0.0000
     44 H22         7.1657   -1.3514    0.7623 H         1 <0>         0.0000
     45 H23         8.1413   -2.5219    1.6590 H         1 <0>         0.0000
     46 H24         5.9704   -4.0198    1.5260 H         1 <0>         0.0000
     47 H25         2.6549   -2.1876   -0.4426 H         1 <0>         0.0000
     48 H26         4.0519   -3.4254    3.7195 H         1 <0>         0.0000
     49 H27         2.4595   -3.4993    2.8111 H         1 <0>         0.0000
     50 H28         3.8157   -4.1378    1.3829 H         1 <0>         0.0000
@<TRIPOS>BOND
     1    1   18 am
     2    1   20 2
     3    2   12 1
     4    2   17 am
     5    2   21 2
     6    3   13 1
     7    3   16 am
     8    3   22 2
     9    4   14 1
    10    5   14 1
    11    6   15 1
    12    7   15 1
    13    8   15 1
    14    9   16 1
    15   10   12 1
    16   10   14 1
    17   11   12 1
    18   11   18 1
    19   13   15 1
    20   13   17 1
    21   18   19 1
    22    1   23 1
    23    4   24 1
    24    4   25 1
    25    4   26 1
    26    5   27 1
    27    5   28 1
    28    5   29 1
    29    6   30 1
    30    6   31 1
    31    6   32 1
    32    7   33 1
    33    7   34 1
    34    7   35 1
    35    8   36 1
    36    8   37 1
    37    8   38 1
    38    9   39 1
    39    9   40 1
    40    9   41 1
    41   10   42 1
    42   10   43 1
    43   11   44 1
    44   11   45 1
    45   12   46 1
    46   13   47 1
    47   14   48 1
    48   16   49 1
    49   17   50 1
@<TRIPOS>MOLECULE
LIGAND
   50    49     0     0     0
SMALL
NO_CHARGES

@<TRIPOS>ATOM
      1 C1          9.0699   -4.7593    1.1439 C.2       1 <0>         0.0000
      2 C2          4.7609   -2.3304    1.0158 C.2       1 <0>         0.0000
      3 C3          1.9548   -1.6162    1.0446 C.2       1 <0>         0.0000
      4 C4          5.5916   -1.8934    4.5978 C.3       1 <0>         0.0000
      5 C5          7.0929    0.0222    4.0244 C.3       1 <0>         0.0000
      6 C6          2.0155   -5.3270   -0.2360 C.3       1 <0>         0.0000
      7 C7          1.1035   -4.4371    1.9036 C.3       1 <0>         0.0000
      8 C8          0.0778   -3.7458   -0.2707 C.3       1 <0>         0.0000
      9 C9          0.8348    0.5461    0.5966 C.3       1 <0>         0.0000
     10 C10         6.8665   -1.8668    2.3816 C.3       1 <0>         0.0000
     11 C11         6.8055   -3.7427    0.6616 C.3       1 <0>         0.0000
     12 C12         5.9953   -2.9363    1.6910 C.3       1 <0>         0.0000
     13 C13         2.4245   -2.8999    0.3599 C.3       1 <0>         0.0000
     14 C14         6.1374   -1.0321    3.4575 C.3       1 <0>         0.0000
     15 C15         1.4067   -4.0765    0.4357 C.3       1 <0>         0.0000
     16 N1          1.3343   -0.7384    0.1680 N.am      1 <0>         0.0000
     17 N2          3.6959   -3.2182    0.9688 N.am      1 <0>         0.0000
     18 N3          7.7018   -4.6947    1.2608 N.am      1 <0>         0.0000
     19 O1          7.0858   -5.6503    2.0450 O.3       1 <0>         0.0000
     20 O2          9.8054   -5.5884    1.6713 O.2       1 <0>         0.0000
     21 O3          4.7482   -1.1914    0.5542 O.2       1 <0>         0.0000
     22 O4          2.1356   -1.3931    2.2407 O.2       1 <0>         0.0000
     23 H1          9.4955   -3.9666    0.5035 H         1 <0>         0.0000
     24 H2          6.4006   -2.4456    5.0885 H         1 <0>         0.0000
     25 H3          4.8609   -2.6219    4.2310 H         1 <0>         0.0000
     26 H4          5.1097   -1.2817    5.3659 H         1 <0>         0.0000
     27 H5          7.9623   -0.4436    4.5008 H         1 <0>         0.0000
     28 H6          7.4545    0.6861    3.2321 H         1 <0>         0.0000
     29 H7          6.5886    0.6429    4.7727 H         1 <0>         0.0000
     30 H8          2.2541   -5.1329   -1.2877 H         1 <0>         0.0000
     31 H9          1.3305   -6.1810   -0.1982 H         1 <0>         0.0000
     32 H10         2.9425   -5.6329    0.2628 H         1 <0>         0.0000
     33 H11         0.6668   -3.5850    2.4375 H         1 <0>         0.0000
     34 H12         2.0104   -4.7234    2.4466 H         1 <0>         0.0000
     35 H13         0.3913   -5.2673    1.9681 H         1 <0>         0.0000
     36 H14        -0.3923   -2.8611    0.1746 H         1 <0>         0.0000
     37 H15        -0.6390   -4.5698   -0.1902 H         1 <0>         0.0000
     38 H16         0.2276   -3.5306   -1.3336 H         1 <0>         0.0000
     39 H17        -0.2038    0.4548    0.9249 H         1 <0>         0.0000
     40 H18         0.8817    1.2638   -0.2270 H         1 <0>         0.0000
     41 H19         1.4345    0.9267    1.4277 H         1 <0>         0.0000
     42 H20         7.7322   -2.3581    2.8457 H         1 <0>         0.0000
     43 H21         7.2705   -1.1813    1.6250 H         1 <0>         0.0000
     44 H22         6.1354   -4.3010   -0.0008 H         1 <0>         0.0000
     45 H23         7.4165   -3.0830    0.0367 H         1 <0>         0.0000
     46 H24         5.6479   -3.6501    2.4472 H         1 <0>         0.0000
     47 H25         2.6512   -2.6760   -0.6903 H         1 <0>         0.0000
     48 H26         5.2955   -0.5008    2.9986 H         1 <0>         0.0000
     49 H27         1.2283   -1.0078   -0.8054 H         1 <0>         0.0000
     50 H28         3.8157   -4.1378    1.3829 H         1 <0>         0.0000
@<TRIPOS>BOND
     1    1   18 am
     2    1   20 2
     3    2   12 1
     4    2   17 am
     5    2   21 2
     6    3   13 1
     7    3   16 am
     8    3   22 2
     9    4   14 1
    10    5   14 1
    11    6   15 1
    12    7   15 1
    13    8   15 1
    14    9   16 1
    15   10   12 1
    16   10   14 1
    17   11   12 1
    18   11   18 1
    19   13   15 1
    20   13   17 1
    21   18   19 1
    22    1   23 1
    23    4   24 1
    24    4   25 1
    25    4   26 1
    26    5   27 1
    27    5   28 1
    28    5   29 1
    29    6   30 1
    30    6   31 1
    31    6   32 1
    32    7   33 1
    33    7   34 1
    34    7   35 1
    35    8   36 1
    36    8   37 1
    37    8   38 1
    38    9   39 1
    39    9   40 1
    40    9   41 1
    41   10   42 1
    42   10   43 1
    43   11   44 1
    44   11   45 1
    45   12   46 1
    46   13   47 1
    47   14   48 1
    48   16   49 1
    49   17   50 1
@<TRIPOS>MOLECULE
LIGAND
   50    49     0     0     0
SMALL
NO_CHARGES

@<TRIPOS>ATOM
      1 C1          8.5765   -5.1397    1.8608 C.2       1 <0>         0.0000
      2 C2          4.7609   -2.3304    1.0158 C.2       1 <0>         0.0000
      3 C3          1.3743   -3.6105    1.2141 C.2       1 <0>         0.0000
      4 C4          7.0285   -1.4411    4.2202 C.3       1 <0>         0.0000
      5 C5          8.3048    0.0740    2.6945 C.3       1 <0>         0.0000
      6 C6          3.5112   -2.5312   -1.8976 C.3       1 <0>         0.0000
      7 C7          2.5798   -4.7765   -1.3563 C.3       1 <0>         0.0000
      8 C8          1.0336   -2.8618   -1.8044 C.3       1 <0>         0.0000
      9 C9         -0.8899   -3.3247    2.1744 C.3       1 <0>         0.0000
     10 C10         7.1850   -1.9548    1.7203 C.3       1 <0>         0.0000
     11 C11         6.3716   -4.2554    0.9948 C.3       1 <0>         0.0000
     12 C12         5.9953   -2.9363    1.6910 C.3       1 <0>         0.0000
     13 C13         2.4245   -2.8999    0.3599 C.3       1 <0>         0.0000
     14 C14         7.0962   -0.8603    2.8067 C.3       1 <0>         0.0000
     15 C15         2.3718   -3.2623   -1.1540 C.3       1 <0>         0.0000
     16 N1          0.2223   -2.8565    1.3827 N.am      1 <0>         0.0000
     17 N2          3.6959   -3.2182    0.9688 N.am      1 <0>         0.0000
     18 N3          7.2036   -5.1082    1.8005 N.am      1 <0>         0.0000
     19 O1          6.5125   -5.9949    2.6028 O.3       1 <0>         0.0000
     20 O2          9.2557   -5.8833    2.5623 O.2       1 <0>         0.0000
     21 O3          4.7482   -1.1914    0.5542 O.2       1 <0>         0.0000
     22 O4          1.5569   -4.7218    1.7089 O.2       1 <0>         0.0000
     23 H1          9.0639   -4.4059    1.1947 H         1 <0>         0.0000
     24 H2          7.9109   -2.0554    4.4301 H         1 <0>         0.0000
     25 H3          6.1416   -2.0705    4.3492 H         1 <0>         0.0000
     26 H4          7.0010   -0.6512    4.9764 H         1 <0>         0.0000
     27 H5          9.2434   -0.4691    2.8487 H         1 <0>         0.0000
     28 H6          8.3428    0.5443    1.7062 H         1 <0>         0.0000
     29 H7          8.2495    0.8738    3.4405 H         1 <0>         0.0000
     30 H8          3.4182   -1.4447   -1.7906 H         1 <0>         0.0000
     31 H9          3.5120   -2.7653   -2.9677 H         1 <0>         0.0000
     32 H10         4.4918   -2.8203   -1.5020 H         1 <0>         0.0000
     33 H11         1.7979   -5.3538   -0.8491 H         1 <0>         0.0000
     34 H12         3.5395   -5.1121   -0.9494 H         1 <0>         0.0000
     35 H13         2.5489   -5.0416   -2.4191 H         1 <0>         0.0000
     36 H14         0.1926   -3.3589   -1.3070 H         1 <0>         0.0000
     37 H15         0.9978   -3.1431   -2.8622 H         1 <0>         0.0000
     38 H16         0.8573   -1.7835   -1.7352 H         1 <0>         0.0000
     39 H17        -1.5882   -3.8849    1.5471 H         1 <0>         0.0000
     40 H18        -1.4189   -2.4783    2.6208 H         1 <0>         0.0000
     41 H19        -0.5348   -3.9781    2.9759 H         1 <0>         0.0000
     42 H20         8.1124   -2.5237    1.8705 H         1 <0>         0.0000
     43 H21         7.2788   -1.4660    0.7417 H         1 <0>         0.0000
     44 H22         5.4713   -4.8257    0.7425 H         1 <0>         0.0000
     45 H23         6.9178   -4.0682    0.0644 H         1 <0>         0.0000
     46 H24         5.7229   -3.1911    2.7220 H         1 <0>         0.0000
     47 H25         2.3043   -1.8161    0.4837 H         1 <0>         0.0000
     48 H26         6.1964   -0.2560    2.6429 H         1 <0>         0.0000
     49 H27         0.1595   -1.9470    0.9352 H         1 <0>         0.0000
     50 H28         3.8157   -4.1378    1.3829 H         1 <0>         0.0000
@<TRIPOS>BOND
     1    1   18 am
     2    1   20 2
     3    2   12 1
     4    2   17 am
     5    2   21 2
     6    3   13 1
     7    3   16 am
     8    3   22 2
     9    4   14 1
    10    5   14 1
    11    6   15 1
    12    7   15 1
    13    8   15 1
    14    9   16 1
    15   10   12 1
    16   10   14 1
    17   11   12 1
    18   11   18 1
    19   13   15 1
    20   13   17 1
    21   18   19 1
    22    1   23 1
    23    4   24 1
    24    4   25 1
    25    4   26 1
    26    5   27 1
    27    5   28 1
    28    5   29 1
    29    6   30 1
    30    6   31 1
    31    6   32 1
    32    7   33 1
    33    7   34 1
    34    7   35 1
    35    8   36 1
    36    8   37 1
    37    8   38 1
    38    9   39 1
    39    9   40 1
    40    9   41 1
    41   10   42 1
    42   10   43 1
    43   11   44 1
    44   11   45 1
    45   12   46 1
    46   13   47 1
    47   14   48 1
    48   16   49 1
    49   17   50 1
@<TRIPOS>MOLECULE
LIGAND
   50    49     0     0     0
SMALL
NO_CHARGES

@<TRIPOS>ATOM
      1 C1          9.0094   -4.5043    1.6394 C.2       1 <0>         0.0000
      2 C2          4.7609   -2.3304    1.0158 C.2       1 <0>         0.0000
      3 C3          1.3743   -3.6105    1.2141 C.2       1 <0>         0.0000
      4 C4          5.5916   -1.8934    4.5978 C.3       1 <0>         0.0000
      5 C5          7.0929    0.0222    4.0244 C.3       1 <0>         0.0000
      6 C6          2.9144   -2.0789   -1.9851 C.3       1 <0>         0.0000
      7 C7          3.2618   -4.4861   -1.4495 C.3       1 <0>         0.0000
      8 C8          0.9399   -3.5730   -1.6309 C.3       1 <0>         0.0000
      9 C9         -0.4638   -3.1822    2.8167 C.3       1 <0>         0.0000
     10 C10         6.8665   -1.8668    2.3816 C.3       1 <0>         0.0000
     11 C11         6.8055   -3.7427    0.6616 C.3       1 <0>         0.0000
     12 C12         5.9953   -2.9363    1.6910 C.3       1 <0>         0.0000
     13 C13         2.4245   -2.8999    0.3599 C.3       1 <0>         0.0000
     14 C14         6.1374   -1.0321    3.4575 C.3       1 <0>         0.0000
     15 C15         2.3718   -3.2623   -1.1540 C.3       1 <0>         0.0000
     16 N1          0.5772   -2.7269    1.9268 N.am      1 <0>         0.0000
     17 N2          3.6959   -3.2182    0.9688 N.am      1 <0>         0.0000
     18 N3          7.7018   -4.6947    1.2608 N.am      1 <0>         0.0000
     19 O1          7.1560   -5.9460    1.4704 O.3       1 <0>         0.0000
     20 O2          9.7470   -5.3422    2.1497 O.2       1 <0>         0.0000
     21 O3          4.7482   -1.1914    0.5542 O.2       1 <0>         0.0000
     22 O4          1.2756   -4.8354    1.2685 O.2       1 <0>         0.0000
     23 H1          9.3809   -3.4829    1.4433 H         1 <0>         0.0000
     24 H2          6.4006   -2.4456    5.0885 H         1 <0>         0.0000
     25 H3          4.8609   -2.6219    4.2310 H         1 <0>         0.0000
     26 H4          5.1097   -1.2817    5.3659 H         1 <0>         0.0000
     27 H5          7.9623   -0.4436    4.5008 H         1 <0>         0.0000
     28 H6          7.4545    0.6861    3.2321 H         1 <0>         0.0000
     29 H7          6.5886    0.6429    4.7727 H         1 <0>         0.0000
     30 H8          2.3199   -1.1739   -1.8172 H         1 <0>         0.0000
     31 H9          2.8994   -2.2973   -3.0585 H         1 <0>         0.0000
     32 H10         3.9518   -1.8484   -1.7158 H         1 <0>         0.0000
     33 H11         2.9258   -5.3642   -0.8858 H         1 <0>         0.0000
     34 H12         4.3049   -4.3063   -1.1689 H         1 <0>         0.0000
     35 H13         3.2353   -4.7468   -2.5135 H         1 <0>         0.0000
     36 H14         0.5126   -4.4101   -1.0664 H         1 <0>         0.0000
     37 H15         0.9176   -3.8503   -2.6901 H         1 <0>         0.0000
     38 H16         0.2727   -2.7163   -1.4916 H         1 <0>         0.0000
     39 H17        -1.4067   -3.2811    2.2725 H         1 <0>         0.0000
     40 H18        -0.6020   -2.4684    3.6333 H         1 <0>         0.0000
     41 H19        -0.1993   -4.1542    3.2419 H         1 <0>         0.0000
     42 H20         7.7322   -2.3581    2.8457 H         1 <0>         0.0000
     43 H21         7.2705   -1.1813    1.6250 H         1 <0>         0.0000
     44 H22         6.1354   -4.3010   -0.0008 H         1 <0>         0.0000
     45 H23         7.4165   -3.0830    0.0367 H         1 <0>         0.0000
     46 H24         5.6479   -3.6501    2.4472 H         1 <0>         0.0000
     47 H25         2.3043   -1.8161    0.4837 H         1 <0>         0.0000
     48 H26         5.2955   -0.5008    2.9986 H         1 <0>         0.0000
     49 H27         0.7309   -1.7288    1.8190 H         1 <0>         0.0000
     50 H28         3.8157   -4.1378    1.3829 H         1 <0>         0.0000
@<TRIPOS>BOND
     1    1   18 am
     2    1   20 2
     3    2   12 1
     4    2   17 am
     5    2   21 2
     6    3   13 1
     7    3   16 am
     8    3   22 2
     9    4   14 1
    10    5   14 1
    11    6   15 1
    12    7   15 1
    13    8   15 1
    14    9   16 1
    15   10   12 1
    16   10   14 1
    17   11   12 1
    18   11   18 1
    19   13   15 1
    20   13   17 1
    21   18   19 1
    22    1   23 1
    23    4   24 1
    24    4   25 1
    25    4   26 1
    26    5   27 1
    27    5   28 1
    28    5   29 1
    29    6   30 1
    30    6   31 1
    31    6   32 1
    32    7   33 1
    33    7   34 1
    34    7   35 1
    35    8   36 1
    36    8   37 1
    37    8   38 1
    38    9   39 1
    39    9   40 1
    40    9   41 1
    41   10   42 1
    42   10   43 1
    43   11   44 1
    44   11   45 1
    45   12   46 1
    46   13   47 1
    47   14   48 1
    48   16   49 1
    49   17   50 1
@<TRIPOS>MOLECULE
LIGAND
   50    49     0     0     0
SMALL
NO_CHARGES

@<TRIPOS>ATOM
      1 C1          9.0094   -4.5043    1.6394 C.2       1 <0>         0.0000
      2 C2          4.7609   -2.3304    1.0158 C.2       1 <0>         0.0000
      3 C3          1.3743   -3.6105    1.2141 C.2       1 <0>         0.0000
      4 C4          5.5916   -1.8934    4.5978 C.3       1 <0>         0.0000
      5 C5          7.0929    0.0222    4.0244 C.3       1 <0>         0.0000
      6 C6          2.1676   -1.9758   -1.9839 C.3       1 <0>         0.0000
      7 C7          3.7004   -3.9015   -1.6047 C.3       1 <0>         0.0000
      8 C8          1.2246   -4.2374   -1.4817 C.3       1 <0>         0.0000
      9 C9         -0.8899   -3.3247    2.1744 C.3       1 <0>         0.0000
     10 C10         6.8665   -1.8668    2.3816 C.3       1 <0>         0.0000
     11 C11         6.8055   -3.7427    0.6616 C.3       1 <0>         0.0000
     12 C12         5.9953   -2.9363    1.6910 C.3       1 <0>         0.0000
     13 C13         2.4245   -2.8999    0.3599 C.3       1 <0>         0.0000
     14 C14         6.1374   -1.0321    3.4575 C.3       1 <0>         0.0000
     15 C15         2.3718   -3.2623   -1.1540 C.3       1 <0>         0.0000
     16 N1          0.2223   -2.8565    1.3827 N.am      1 <0>         0.0000
     17 N2          3.6959   -3.2182    0.9688 N.am      1 <0>         0.0000
     18 N3          7.7018   -4.6947    1.2608 N.am      1 <0>         0.0000
     19 O1          7.1560   -5.9460    1.4704 O.3       1 <0>         0.0000
     20 O2          9.6534   -3.4652    1.5292 O.2       1 <0>         0.0000
     21 O3          4.7482   -1.1914    0.5542 O.2       1 <0>         0.0000
     22 O4          1.5569   -4.7218    1.7089 O.2       1 <0>         0.0000
     23 H1          9.4767   -5.4035    2.0784 H         1 <0>         0.0000
     24 H2          6.4006   -2.4456    5.0885 H         1 <0>         0.0000
     25 H3          4.8609   -2.6219    4.2310 H         1 <0>         0.0000
     26 H4          5.1097   -1.2817    5.3659 H         1 <0>         0.0000
     27 H5          7.9623   -0.4436    4.5008 H         1 <0>         0.0000
     28 H6          7.4545    0.6861    3.2321 H         1 <0>         0.0000
     29 H7          6.5886    0.6429    4.7727 H         1 <0>         0.0000
     30 H8          1.2340   -1.4727   -1.7080 H         1 <0>         0.0000
     31 H9          2.1309   -2.1882   -3.0579 H         1 <0>         0.0000
     32 H10         2.9869   -1.2657   -1.8218 H         1 <0>         0.0000
     33 H11         3.9033   -4.8245   -1.0490 H         1 <0>         0.0000
     34 H12         4.5507   -3.2327   -1.4344 H         1 <0>         0.0000
     35 H13         3.6755   -4.1564   -2.6701 H         1 <0>         0.0000
     36 H14         1.3286   -5.1690   -0.9131 H         1 <0>         0.0000
     37 H15         1.2119   -4.5047   -2.5437 H         1 <0>         0.0000
     38 H16         0.2480   -3.8124   -1.2284 H         1 <0>         0.0000
     39 H17        -1.5882   -3.8849    1.5471 H         1 <0>         0.0000
     40 H18        -1.4189   -2.4783    2.6208 H         1 <0>         0.0000
     41 H19        -0.5348   -3.9781    2.9759 H         1 <0>         0.0000
     42 H20         7.7322   -2.3581    2.8457 H         1 <0>         0.0000
     43 H21         7.2705   -1.1813    1.6250 H         1 <0>         0.0000
     44 H22         6.1354   -4.3010   -0.0008 H         1 <0>         0.0000
     45 H23         7.4165   -3.0830    0.0367 H         1 <0>         0.0000
     46 H24         5.6479   -3.6501    2.4472 H         1 <0>         0.0000
     47 H25         2.3043   -1.8161    0.4837 H         1 <0>         0.0000
     48 H26         5.2955   -0.5008    2.9986 H         1 <0>         0.0000
     49 H27         0.1595   -1.9470    0.9352 H         1 <0>         0.0000
     50 H28         3.8157   -4.1378    1.3829 H         1 <0>         0.0000
@<TRIPOS>BOND
     1    1   18 am
     2    1   20 2
     3    2   12 1
     4    2   17 am
     5    2   21 2
     6    3   13 1
     7    3   16 am
     8    3   22 2
     9    4   14 1
    10    5   14 1
    11    6   15 1
    12    7   15 1
    13    8   15 1
    14    9   16 1
    15   10   12 1
    16   10   14 1
    17   11   12 1
    18   11   18 1
    19   13   15 1
    20   13   17 1
    21   18   19 1
    22    1   23 1
    23    4   24 1
    24    4   25 1
    25    4   26 1
    26    5   27 1
    27    5   28 1
    28    5   29 1
    29    6   30 1
    30    6   31 1
    31    6   32 1
    32    7   33 1
    33    7   34 1
    34    7   35 1
    35    8   36 1
    36    8   37 1
    37    8   38 1
    38    9   39 1
    39    9   40 1
    40    9   41 1
    41   10   42 1
    42   10   43 1
    43   11   44 1
    44   11   45 1
    45   12   46 1
    46   13   47 1
    47   14   48 1
    48   16   49 1
    49   17   50 1
@<TRIPOS>MOLECULE
LIGAND
   50    49     0     0     0
SMALL
NO_CHARGES

@<TRIPOS>ATOM
      1 C1          4.8014   -1.1421    4.3182 C.2       1 <0>         0.0000
      2 C2          4.7609   -2.3304    1.0158 C.2       1 <0>         0.0000
      3 C3          1.6238   -2.1763    1.4428 C.2       1 <0>         0.0000
      4 C4          7.9668   -2.9805   -0.7195 C.3       1 <0>         0.0000
      5 C5          7.2752   -5.3485   -1.1277 C.3       1 <0>         0.0000
      6 C6          2.6382   -4.8237   -1.2732 C.3       1 <0>         0.0000
      7 C7          1.4139   -5.1834    0.8654 C.3       1 <0>         0.0000
      8 C8          0.3871   -3.7862   -0.9377 C.3       1 <0>         0.0000
      9 C9          1.1427   -2.2044    3.8715 C.3       1 <0>         0.0000
     10 C10         6.4903   -4.2069    0.9698 C.3       1 <0>         0.0000
     11 C11         5.6912   -3.2135    3.1734 C.3       1 <0>         0.0000
     12 C12         5.9953   -2.9363    1.6910 C.3       1 <0>         0.0000
     13 C13         2.4245   -2.8999    0.3599 C.3       1 <0>         0.0000
     14 C14         6.8518   -4.0083   -0.5189 C.3       1 <0>         0.0000
     15 C15         1.7114   -4.1488   -0.2382 C.3       1 <0>         0.0000
     16 N1          1.8198   -2.7177    2.7048 N.am      1 <0>         0.0000
     17 N2          3.6959   -3.2182    0.9688 N.am      1 <0>         0.0000
     18 N3          5.7903   -2.0436    4.0042 N.am      1 <0>         0.0000
     19 O1          7.0443   -1.8225    4.5393 O.3       1 <0>         0.0000
     20 O2          4.9220   -0.1515    5.0329 O.2       1 <0>         0.0000
     21 O3          4.7482   -1.1914    0.5542 O.2       1 <0>         0.0000
     22 O4          0.8744   -1.2316    1.1999 O.2       1 <0>         0.0000
     23 H1          3.8262   -1.3791    3.8573 H         1 <0>         0.0000
     24 H2          8.8753   -3.2848   -0.1883 H         1 <0>         0.0000
     25 H3          7.6713   -1.9951   -0.3441 H         1 <0>         0.0000
     26 H4          8.2323   -2.8793   -1.7758 H         1 <0>         0.0000
     27 H5          8.1599   -5.7527   -0.6240 H         1 <0>         0.0000
     28 H6          6.4698   -6.0859   -1.0440 H         1 <0>         0.0000
     29 H7          7.5125   -5.2358   -2.1909 H         1 <0>         0.0000
     30 H8          2.8872   -4.1345   -2.0879 H         1 <0>         0.0000
     31 H9          2.1738   -5.7124   -1.7140 H         1 <0>         0.0000
     32 H10         3.5794   -5.1449   -0.8119 H         1 <0>         0.0000
     33 H11         0.7565   -4.7621    1.6349 H         1 <0>         0.0000
     34 H12         2.3282   -5.5113    1.3711 H         1 <0>         0.0000
     35 H13         0.9158   -6.0685    0.4541 H         1 <0>         0.0000
     36 H14        -0.3050   -3.3025   -0.2384 H         1 <0>         0.0000
     37 H15        -0.1179   -4.6740   -1.3329 H         1 <0>         0.0000
     38 H16         0.5457   -3.0900   -1.7676 H         1 <0>         0.0000
     39 H17         1.7401   -1.4157    4.3360 H         1 <0>         0.0000
     40 H18         0.9874   -3.0042    4.6007 H         1 <0>         0.0000
     41 H19         0.1698   -1.7909    3.5925 H         1 <0>         0.0000
     42 H20         7.3727   -4.5944    1.4964 H         1 <0>         0.0000
     43 H21         5.7222   -4.9884    1.0394 H         1 <0>         0.0000
     44 H22         4.6761   -3.6079    3.2888 H         1 <0>         0.0000
     45 H23         6.3842   -3.9541    3.5861 H         1 <0>         0.0000
     46 H24         6.7931   -2.1847    1.6686 H         1 <0>         0.0000
     47 H25         2.6549   -2.1876   -0.4426 H         1 <0>         0.0000
     48 H26         5.9671   -3.6628   -1.0661 H         1 <0>         0.0000
     49 H27         2.4595   -3.4993    2.8111 H         1 <0>         0.0000
     50 H28         3.8157   -4.1378    1.3829 H         1 <0>         0.0000
@<TRIPOS>BOND
     1    1   18 am
     2    1   20 2
     3    2   12 1
     4    2   17 am
     5    2   21 2
     6    3   13 1
     7    3   16 am
     8    3   22 2
     9    4   14 1
    10    5   14 1
    11    6   15 1
    12    7   15 1
    13    8   15 1
    14    9   16 1
    15   10   12 1
    16   10   14 1
    17   11   12 1
    18   11   18 1
    19   13   15 1
    20   13   17 1
    21   18   19 1
    22    1   23 1
    23    4   24 1
    24    4   25 1
    25    4   26 1
    26    5   27 1
    27    5   28 1
    28    5   29 1
    29    6   30 1
    30    6   31 1
    31    6   32 1
    32    7   33 1
    33    7   34 1
    34    7   35 1
    35    8   36 1
    36    8   37 1
    37    8   38 1
    38    9   39 1
    39    9   40 1
    40    9   41 1
    41   10   42 1
    42   10   43 1
    43   11   44 1
    44   11   45 1
    45   12   46 1
    46   13   47 1
    47   14   48 1
    48   16   49 1
    49   17   50 1
@<TRIPOS>MOLECULE
LIGAND
   50    49     0     0     0
SMALL
NO_CHARGES

@<TRIPOS>ATOM
      1 C1          8.6027   -4.5615    0.9314 C.2       1 <0>         0.0000
      2 C2          4.7609   -2.3304    1.0158 C.2       1 <0>         0.0000
      3 C3          1.4114   -2.9063    1.5049 C.2       1 <0>         0.0000
      4 C4          5.4286   -5.0551    3.9022 C.3       1 <0>         0.0000
      5 C5          5.1681   -3.1669    5.5205 C.3       1 <0>         0.0000
      6 C6          3.1857   -3.8003   -1.8813 C.3       1 <0>         0.0000
      7 C7          1.9543   -5.3076   -0.3278 C.3       1 <0>         0.0000
      8 C8          0.7370   -3.4626   -1.4991 C.3       1 <0>         0.0000
      9 C9          1.0123   -1.9958    3.7725 C.3       1 <0>         0.0000
     10 C10         6.0212   -2.6662    3.2096 C.3       1 <0>         0.0000
     11 C11         7.2695   -2.4142    1.0053 C.3       1 <0>         0.0000
     12 C12         5.9953   -2.9363    1.6910 C.3       1 <0>         0.0000
     13 C13         2.4245   -2.8999    0.3599 C.3       1 <0>         0.0000
     14 C14         5.0884   -3.5706    4.0452 C.3       1 <0>         0.0000
     15 C15         2.0646   -3.8508   -0.8201 C.3       1 <0>         0.0000
     16 N1          1.8071   -2.1159    2.5738 N.am      1 <0>         0.0000
     17 N2          3.6959   -3.2182    0.9688 N.am      1 <0>         0.0000
     18 N3          8.4249   -3.2358    1.2479 N.am      1 <0>         0.0000
     19 O1          9.4695   -2.5879    1.8778 O.3       1 <0>         0.0000
     20 O2          7.7876   -5.2906    0.3741 O.2       1 <0>         0.0000
     21 O3          4.7482   -1.1914    0.5542 O.2       1 <0>         0.0000
     22 O4          0.3728   -3.5647    1.4736 O.2       1 <0>         0.0000
     23 H1          9.5898   -4.9573    1.2289 H         1 <0>         0.0000
     24 H2          6.4596   -5.2491    4.2175 H         1 <0>         0.0000
     25 H3          5.3256   -5.3883    2.8641 H         1 <0>         0.0000
     26 H4          4.7804   -5.6761    4.5273 H         1 <0>         0.0000
     27 H5          6.1838   -3.2884    5.9121 H         1 <0>         0.0000
     28 H6          4.8754   -2.1200    5.6540 H         1 <0>         0.0000
     29 H7          4.4947   -3.7797    6.1290 H         1 <0>         0.0000
     30 H8          3.3133   -2.7845   -2.2720 H         1 <0>         0.0000
     31 H9          2.9723   -4.4622   -2.7277 H         1 <0>         0.0000
     32 H10         4.1465   -4.1154   -1.4578 H         1 <0>         0.0000
     33 H11         1.1705   -5.4095    0.4319 H         1 <0>         0.0000
     34 H12         2.8879   -5.6535    0.1281 H         1 <0>         0.0000
     35 H13         1.7055   -5.9859   -1.1517 H         1 <0>         0.0000
     36 H14        -0.0909   -3.4848   -0.7807 H         1 <0>         0.0000
     37 H15         0.4812   -4.1517   -2.3109 H         1 <0>         0.0000
     38 H16         0.7762   -2.4505   -1.9146 H         1 <0>         0.0000
     39 H17         0.3100   -1.1637    3.6759 H         1 <0>         0.0000
     40 H18         1.6568   -1.8137    4.6368 H         1 <0>         0.0000
     41 H19         0.4467   -2.9155    3.9448 H         1 <0>         0.0000
     42 H20         7.0493   -2.7891    3.5757 H         1 <0>         0.0000
     43 H21         5.7503   -1.6191    3.3985 H         1 <0>         0.0000
     44 H22         7.1283   -2.3661   -0.0797 H         1 <0>         0.0000
     45 H23         7.5195   -1.4064    1.3527 H         1 <0>         0.0000
     46 H24         5.9704   -4.0198    1.5260 H         1 <0>         0.0000
     47 H25         2.5279   -1.8729   -0.0129 H         1 <0>         0.0000
     48 H26         4.0519   -3.4254    3.7195 H         1 <0>         0.0000
     49 H27         2.6832   -1.6060    2.5111 H         1 <0>         0.0000
     50 H28         3.8157   -4.1378    1.3829 H         1 <0>         0.0000
@<TRIPOS>BOND
     1    1   18 am
     2    1   20 2
     3    2   12 1
     4    2   17 am
     5    2   21 2
     6    3   13 1
     7    3   16 am
     8    3   22 2
     9    4   14 1
    10    5   14 1
    11    6   15 1
    12    7   15 1
    13    8   15 1
    14    9   16 1
    15   10   12 1
    16   10   14 1
    17   11   12 1
    18   11   18 1
    19   13   15 1
    20   13   17 1
    21   18   19 1
    22    1   23 1
    23    4   24 1
    24    4   25 1
    25    4   26 1
    26    5   27 1
    27    5   28 1
    28    5   29 1
    29    6   30 1
    30    6   31 1
    31    6   32 1
    32    7   33 1
    33    7   34 1
    34    7   35 1
    35    8   36 1
    36    8   37 1
    37    8   38 1
    38    9   39 1
    39    9   40 1
    40    9   41 1
    41   10   42 1
    42   10   43 1
    43   11   44 1
    44   11   45 1
    45   12   46 1
    46   13   47 1
    47   14   48 1
    48   16   49 1
    49   17   50 1
@<TRIPOS>MOLECULE
LIGAND
   50    49     0     0     0
SMALL
NO_CHARGES

@<TRIPOS>ATOM
      1 C1          6.8958   -1.5680    4.6682 C.2       1 <0>         0.0000
      2 C2          4.7609   -2.3304    1.0158 C.2       1 <0>         0.0000
      3 C3          1.4114   -2.9063    1.5049 C.2       1 <0>         0.0000
      4 C4          8.5547   -3.1178   -0.0742 C.3       1 <0>         0.0000
      5 C5          7.6782   -5.2829   -0.9666 C.3       1 <0>         0.0000
      6 C6          3.1857   -3.8003   -1.8813 C.3       1 <0>         0.0000
      7 C7          1.9543   -5.3076   -0.3278 C.3       1 <0>         0.0000
      8 C8          0.7370   -3.4626   -1.4991 C.3       1 <0>         0.0000
      9 C9          0.5462   -1.5170    3.3628 C.3       1 <0>         0.0000
     10 C10         6.4903   -4.2069    0.9698 C.3       1 <0>         0.0000
     11 C11         5.6912   -3.2135    3.1734 C.3       1 <0>         0.0000
     12 C12         5.9953   -2.9363    1.6910 C.3       1 <0>         0.0000
     13 C13         2.4245   -2.8999    0.3599 C.3       1 <0>         0.0000
     14 C14         7.2936   -3.9469   -0.3237 C.3       1 <0>         0.0000
     15 C15         2.0646   -3.8508   -0.8201 C.3       1 <0>         0.0000
     16 N1          1.4084   -1.7198    2.2232 N.am      1 <0>         0.0000
     17 N2          3.6959   -3.2182    0.9688 N.am      1 <0>         0.0000
     18 N3          5.7903   -2.0436    4.0042 N.am      1 <0>         0.0000
     19 O1          4.6156   -1.3288    4.1337 O.3       1 <0>         0.0000
     20 O2          8.0156   -2.0707    4.6671 O.2       1 <0>         0.0000
     21 O3          4.7482   -1.1914    0.5542 O.2       1 <0>         0.0000
     22 O4          0.6993   -3.8762    1.7607 O.2       1 <0>         0.0000
     23 H1          6.7023   -0.6439    5.2411 H         1 <0>         0.0000
     24 H2          9.2158   -3.6219    0.6392 H         1 <0>         0.0000
     25 H3          8.3079   -2.1320    0.3339 H         1 <0>         0.0000
     26 H4          9.1275   -2.9738   -0.9949 H         1 <0>         0.0000
     27 H5          8.3104   -5.8785   -0.2992 H         1 <0>         0.0000
     28 H6          6.7859   -5.8716   -1.2045 H         1 <0>         0.0000
     29 H7          8.2280   -5.1221   -1.9000 H         1 <0>         0.0000
     30 H8          3.3133   -2.7845   -2.2720 H         1 <0>         0.0000
     31 H9          2.9723   -4.4622   -2.7277 H         1 <0>         0.0000
     32 H10         4.1465   -4.1154   -1.4578 H         1 <0>         0.0000
     33 H11         1.1705   -5.4095    0.4319 H         1 <0>         0.0000
     34 H12         2.8879   -5.6535    0.1281 H         1 <0>         0.0000
     35 H13         1.7055   -5.9859   -1.1517 H         1 <0>         0.0000
     36 H14        -0.0909   -3.4848   -0.7807 H         1 <0>         0.0000
     37 H15         0.4812   -4.1517   -2.3109 H         1 <0>         0.0000
     38 H16         0.7762   -2.4505   -1.9146 H         1 <0>         0.0000
     39 H17        -0.4080   -1.0916    3.0410 H         1 <0>         0.0000
     40 H18         1.0149   -0.8317    4.0742 H         1 <0>         0.0000
     41 H19         0.3553   -2.4685    3.8664 H         1 <0>         0.0000
     42 H20         7.1160   -4.7876    1.6607 H         1 <0>         0.0000
     43 H21         5.6310   -4.8442    0.7228 H         1 <0>         0.0000
     44 H22         4.6761   -3.6079    3.2888 H         1 <0>         0.0000
     45 H23         6.3842   -3.9541    3.5861 H         1 <0>         0.0000
     46 H24         6.7931   -2.1847    1.6686 H         1 <0>         0.0000
     47 H25         2.5279   -1.8729   -0.0129 H         1 <0>         0.0000
     48 H26         6.6656   -3.4052   -1.0405 H         1 <0>         0.0000
     49 H27         2.0322   -0.9706    1.9386 H         1 <0>         0.0000
     50 H28         3.8157   -4.1378    1.3829 H         1 <0>         0.0000
@<TRIPOS>BOND
     1    1   18 am
     2    1   20 2
     3    2   12 1
     4    2   17 am
     5    2   21 2
     6    3   13 1
     7    3   16 am
     8    3   22 2
     9    4   14 1
    10    5   14 1
    11    6   15 1
    12    7   15 1
    13    8   15 1
    14    9   16 1
    15   10   12 1
    16   10   14 1
    17   11   12 1
    18   11   18 1
    19   13   15 1
    20   13   17 1
    21   18   19 1
    22    1   23 1
    23    4   24 1
    24    4   25 1
    25    4   26 1
    26    5   27 1
    27    5   28 1
    28    5   29 1
    29    6   30 1
    30    6   31 1
    31    6   32 1
    32    7   33 1
    33    7   34 1
    34    7   35 1
    35    8   36 1
    36    8   37 1
    37    8   38 1
    38    9   39 1
    39    9   40 1
    40    9   41 1
    41   10   42 1
    42   10   43 1
    43   11   44 1
    44   11   45 1
    45   12   46 1
    46   13   47 1
    47   14   48 1
    48   16   49 1
    49   17   50 1
@<TRIPOS>MOLECULE
LIGAND
   50    49     0     0     0
SMALL
NO_CHARGES

@<TRIPOS>ATOM
      1 C1          7.3043   -2.3507   -1.3895 C.2       1 <0>         0.0000
      2 C2          4.7609   -2.3304    1.0158 C.2       1 <0>         0.0000
      3 C3          1.3743   -3.6105    1.2141 C.2       1 <0>         0.0000
      4 C4          5.5916   -1.8934    4.5978 C.3       1 <0>         0.0000
      5 C5          7.0929    0.0222    4.0244 C.3       1 <0>         0.0000
      6 C6          2.9144   -2.0789   -1.9851 C.3       1 <0>         0.0000
      7 C7          3.2618   -4.4861   -1.4495 C.3       1 <0>         0.0000
      8 C8          0.9399   -3.5730   -1.6309 C.3       1 <0>         0.0000
      9 C9         -0.8899   -3.3247    2.1744 C.3       1 <0>         0.0000
     10 C10         6.8665   -1.8668    2.3816 C.3       1 <0>         0.0000
     11 C11         6.8055   -3.7427    0.6616 C.3       1 <0>         0.0000
     12 C12         5.9953   -2.9363    1.6910 C.3       1 <0>         0.0000
     13 C13         2.4245   -2.8999    0.3599 C.3       1 <0>         0.0000
     14 C14         6.1374   -1.0321    3.4575 C.3       1 <0>         0.0000
     15 C15         2.3718   -3.2623   -1.1540 C.3       1 <0>         0.0000
     16 N1          0.2223   -2.8565    1.3827 N.am      1 <0>         0.0000
     17 N2          3.6959   -3.2182    0.9688 N.am      1 <0>         0.0000
     18 N3          7.6315   -2.9222   -0.1830 N.am      1 <0>         0.0000
     19 O1          8.9050   -2.6967    0.3017 O.3       1 <0>         0.0000
     20 O2          6.2260   -2.4438   -1.9685 O.2       1 <0>         0.0000
     21 O3          4.7482   -1.1914    0.5542 O.2       1 <0>         0.0000
     22 O4          1.5569   -4.7218    1.7089 O.2       1 <0>         0.0000
     23 H1          8.1259   -1.7633   -1.8363 H         1 <0>         0.0000
     24 H2          6.4006   -2.4456    5.0885 H         1 <0>         0.0000
     25 H3          4.8609   -2.6219    4.2310 H         1 <0>         0.0000
     26 H4          5.1097   -1.2817    5.3659 H         1 <0>         0.0000
     27 H5          7.9623   -0.4436    4.5008 H         1 <0>         0.0000
     28 H6          7.4545    0.6861    3.2321 H         1 <0>         0.0000
     29 H7          6.5886    0.6429    4.7727 H         1 <0>         0.0000
     30 H8          2.3199   -1.1739   -1.8172 H         1 <0>         0.0000
     31 H9          2.8994   -2.2973   -3.0585 H         1 <0>         0.0000
     32 H10         3.9518   -1.8484   -1.7158 H         1 <0>         0.0000
     33 H11         2.9258   -5.3642   -0.8858 H         1 <0>         0.0000
     34 H12         4.3049   -4.3063   -1.1689 H         1 <0>         0.0000
     35 H13         3.2353   -4.7468   -2.5135 H         1 <0>         0.0000
     36 H14         0.5126   -4.4101   -1.0664 H         1 <0>         0.0000
     37 H15         0.9176   -3.8503   -2.6901 H         1 <0>         0.0000
     38 H16         0.2727   -2.7163   -1.4916 H         1 <0>         0.0000
     39 H17        -1.5882   -3.8849    1.5471 H         1 <0>         0.0000
     40 H18        -1.4189   -2.4783    2.6208 H         1 <0>         0.0000
     41 H19        -0.5348   -3.9781    2.9759 H         1 <0>         0.0000
     42 H20         7.7322   -2.3581    2.8457 H         1 <0>         0.0000
     43 H21         7.2705   -1.1813    1.6250 H         1 <0>         0.0000
     44 H22         7.4659   -4.4552    1.1672 H         1 <0>         0.0000
     45 H23         6.1454   -4.3134    0.0001 H         1 <0>         0.0000
     46 H24         5.6479   -3.6501    2.4472 H         1 <0>         0.0000
     47 H25         2.3043   -1.8161    0.4837 H         1 <0>         0.0000
     48 H26         5.2955   -0.5008    2.9986 H         1 <0>         0.0000
     49 H27         0.1595   -1.9470    0.9352 H         1 <0>         0.0000
     50 H28         3.8157   -4.1378    1.3829 H         1 <0>         0.0000
@<TRIPOS>BOND
     1    1   18 am
     2    1   20 2
     3    2   12 1
     4    2   17 am
     5    2   21 2
     6    3   13 1
     7    3   16 am
     8    3   22 2
     9    4   14 1
    10    5   14 1
    11    6   15 1
    12    7   15 1
    13    8   15 1
    14    9   16 1
    15   10   12 1
    16   10   14 1
    17   11   12 1
    18   11   18 1
    19   13   15 1
    20   13   17 1
    21   18   19 1
    22    1   23 1
    23    4   24 1
    24    4   25 1
    25    4   26 1
    26    5   27 1
    27    5   28 1
    28    5   29 1
    29    6   30 1
    30    6   31 1
    31    6   32 1
    32    7   33 1
    33    7   34 1
    34    7   35 1
    35    8   36 1
    36    8   37 1
    37    8   38 1
    38    9   39 1
    39    9   40 1
    40    9   41 1
    41   10   42 1
    42   10   43 1
    43   11   44 1
    44   11   45 1
    45   12   46 1
    46   13   47 1
    47   14   48 1
    48   16   49 1
    49   17   50 1
@<TRIPOS>MOLECULE
LIGAND
   50    49     0     0     0
SMALL
NO_CHARGES

@<TRIPOS>ATOM
      1 C1          7.3043   -2.3507   -1.3895 C.2       1 <0>         0.0000
      2 C2          4.7609   -2.3304    1.0158 C.2       1 <0>         0.0000
      3 C3          1.4114   -2.9063    1.5049 C.2       1 <0>         0.0000
      4 C4          5.5916   -1.8934    4.5978 C.3       1 <0>         0.0000
      5 C5          7.0929    0.0222    4.0244 C.3       1 <0>         0.0000
      6 C6          3.1857   -3.8003   -1.8813 C.3       1 <0>         0.0000
      7 C7          1.9543   -5.3076   -0.3278 C.3       1 <0>         0.0000
      8 C8          0.7370   -3.4626   -1.4991 C.3       1 <0>         0.0000
      9 C9          1.0123   -1.9958    3.7725 C.3       1 <0>         0.0000
     10 C10         6.8665   -1.8668    2.3816 C.3       1 <0>         0.0000
     11 C11         6.8055   -3.7427    0.6616 C.3       1 <0>         0.0000
     12 C12         5.9953   -2.9363    1.6910 C.3       1 <0>         0.0000
     13 C13         2.4245   -2.8999    0.3599 C.3       1 <0>         0.0000
     14 C14         6.1374   -1.0321    3.4575 C.3       1 <0>         0.0000
     15 C15         2.0646   -3.8508   -0.8201 C.3       1 <0>         0.0000
     16 N1          1.8071   -2.1159    2.5738 N.am      1 <0>         0.0000
     17 N2          3.6959   -3.2182    0.9688 N.am      1 <0>         0.0000
     18 N3          7.6315   -2.9222   -0.1830 N.am      1 <0>         0.0000
     19 O1          8.9050   -2.6967    0.3017 O.3       1 <0>         0.0000
     20 O2          6.2260   -2.4438   -1.9685 O.2       1 <0>         0.0000
     21 O3          4.7482   -1.1914    0.5542 O.2       1 <0>         0.0000
     22 O4          0.3728   -3.5647    1.4736 O.2       1 <0>         0.0000
     23 H1          8.1259   -1.7633   -1.8363 H         1 <0>         0.0000
     24 H2          6.4006   -2.4456    5.0885 H         1 <0>         0.0000
     25 H3          4.8609   -2.6219    4.2310 H         1 <0>         0.0000
     26 H4          5.1097   -1.2817    5.3659 H         1 <0>         0.0000
     27 H5          7.9623   -0.4436    4.5008 H         1 <0>         0.0000
     28 H6          7.4545    0.6861    3.2321 H         1 <0>         0.0000
     29 H7          6.5886    0.6429    4.7727 H         1 <0>         0.0000
     30 H8          3.3133   -2.7845   -2.2720 H         1 <0>         0.0000
     31 H9          2.9723   -4.4622   -2.7277 H         1 <0>         0.0000
     32 H10         4.1465   -4.1154   -1.4578 H         1 <0>         0.0000
     33 H11         1.1705   -5.4095    0.4319 H         1 <0>         0.0000
     34 H12         2.8879   -5.6535    0.1281 H         1 <0>         0.0000
     35 H13         1.7055   -5.9859   -1.1517 H         1 <0>         0.0000
     36 H14        -0.0909   -3.4848   -0.7807 H         1 <0>         0.0000
     37 H15         0.4812   -4.1517   -2.3109 H         1 <0>         0.0000
     38 H16         0.7762   -2.4505   -1.9146 H         1 <0>         0.0000
     39 H17         0.3100   -1.1637    3.6759 H         1 <0>         0.0000
     40 H18         1.6568   -1.8137    4.6368 H         1 <0>         0.0000
     41 H19         0.4467   -2.9155    3.9448 H         1 <0>         0.0000
     42 H20         7.7322   -2.3581    2.8457 H         1 <0>         0.0000
     43 H21         7.2705   -1.1813    1.6250 H         1 <0>         0.0000
     44 H22         7.4659   -4.4552    1.1672 H         1 <0>         0.0000
     45 H23         6.1454   -4.3134    0.0001 H         1 <0>         0.0000
     46 H24         5.6479   -3.6501    2.4472 H         1 <0>         0.0000
     47 H25         2.5279   -1.8729   -0.0129 H         1 <0>         0.0000
     48 H26         5.2955   -0.5008    2.9986 H         1 <0>         0.0000
     49 H27         2.6832   -1.6060    2.5111 H         1 <0>         0.0000
     50 H28         3.8157   -4.1378    1.3829 H         1 <0>         0.0000
@<TRIPOS>BOND
     1    1   18 am
     2    1   20 2
     3    2   12 1
     4    2   17 am
     5    2   21 2
     6    3   13 1
     7    3   16 am
     8    3   22 2
     9    4   14 1
    10    5   14 1
    11    6   15 1
    12    7   15 1
    13    8   15 1
    14    9   16 1
    15   10   12 1
    16   10   14 1
    17   11   12 1
    18   11   18 1
    19   13   15 1
    20   13   17 1
    21   18   19 1
    22    1   23 1
    23    4   24 1
    24    4   25 1
    25    4   26 1
    26    5   27 1
    27    5   28 1
    28    5   29 1
    29    6   30 1
    30    6   31 1
    31    6   32 1
    32    7   33 1
    33    7   34 1
    34    7   35 1
    35    8   36 1
    36    8   37 1
    37    8   38 1
    38    9   39 1
    39    9   40 1
    40    9   41 1
    41   10   42 1
    42   10   43 1
    43   11   44 1
    44   11   45 1
    45   12   46 1
    46   13   47 1
    47   14   48 1
    48   16   49 1
    49   17   50 1
@<TRIPOS>MOLECULE
LIGAND
   50    49     0     0     0
SMALL
NO_CHARGES

@<TRIPOS>ATOM
      1 C1          6.8958   -1.5680    4.6682 C.2       1 <0>         0.0000
      2 C2          4.7609   -2.3304    1.0158 C.2       1 <0>         0.0000
      3 C3          1.4114   -2.9063    1.5049 C.2       1 <0>         0.0000
      4 C4          7.9668   -2.9805   -0.7195 C.3       1 <0>         0.0000
      5 C5          7.2752   -5.3485   -1.1277 C.3       1 <0>         0.0000
      6 C6          3.1857   -3.8003   -1.8813 C.3       1 <0>         0.0000
      7 C7          1.9543   -5.3076   -0.3278 C.3       1 <0>         0.0000
      8 C8          0.7370   -3.4626   -1.4991 C.3       1 <0>         0.0000
      9 C9          0.8046   -4.1182    3.5770 C.3       1 <0>         0.0000
     10 C10         6.4903   -4.2069    0.9698 C.3       1 <0>         0.0000
     11 C11         5.6912   -3.2135    3.1734 C.3       1 <0>         0.0000
     12 C12         5.9953   -2.9363    1.6910 C.3       1 <0>         0.0000
     13 C13         2.4245   -2.8999    0.3599 C.3       1 <0>         0.0000
     14 C14         6.8518   -4.0083   -0.5189 C.3       1 <0>         0.0000
     15 C15         2.0646   -3.8508   -0.8201 C.3       1 <0>         0.0000
     16 N1          1.6532   -3.9132    2.4277 N.am      1 <0>         0.0000
     17 N2          3.6959   -3.2182    0.9688 N.am      1 <0>         0.0000
     18 N3          5.7903   -2.0436    4.0042 N.am      1 <0>         0.0000
     19 O1          4.6156   -1.3288    4.1337 O.3       1 <0>         0.0000
     20 O2          8.0156   -2.0707    4.6671 O.2       1 <0>         0.0000
     21 O3          4.7482   -1.1914    0.5542 O.2       1 <0>         0.0000
     22 O4          0.4758   -2.1105    1.5728 O.2       1 <0>         0.0000
     23 H1          6.7023   -0.6439    5.2411 H         1 <0>         0.0000
     24 H2          8.8753   -3.2848   -0.1883 H         1 <0>         0.0000
     25 H3          7.6713   -1.9951   -0.3441 H         1 <0>         0.0000
     26 H4          8.2323   -2.8793   -1.7758 H         1 <0>         0.0000
     27 H5          8.1599   -5.7527   -0.6240 H         1 <0>         0.0000
     28 H6          6.4698   -6.0859   -1.0440 H         1 <0>         0.0000
     29 H7          7.5125   -5.2358   -2.1909 H         1 <0>         0.0000
     30 H8          3.3133   -2.7845   -2.2720 H         1 <0>         0.0000
     31 H9          2.9723   -4.4622   -2.7277 H         1 <0>         0.0000
     32 H10         4.1465   -4.1154   -1.4578 H         1 <0>         0.0000
     33 H11         1.1705   -5.4095    0.4319 H         1 <0>         0.0000
     34 H12         2.8879   -5.6535    0.1281 H         1 <0>         0.0000
     35 H13         1.7055   -5.9859   -1.1517 H         1 <0>         0.0000
     36 H14        -0.0909   -3.4848   -0.7807 H         1 <0>         0.0000
     37 H15         0.4812   -4.1517   -2.3109 H         1 <0>         0.0000
     38 H16         0.7762   -2.4505   -1.9146 H         1 <0>         0.0000
     39 H17         1.1692   -3.5298    4.4230 H         1 <0>         0.0000
     40 H18         0.7992   -5.1745    3.8593 H         1 <0>         0.0000
     41 H19        -0.2198   -3.8109    3.3501 H         1 <0>         0.0000
     42 H20         7.3727   -4.5944    1.4964 H         1 <0>         0.0000
     43 H21         5.7222   -4.9884    1.0394 H         1 <0>         0.0000
     44 H22         4.6761   -3.6079    3.2888 H         1 <0>         0.0000
     45 H23         6.3842   -3.9541    3.5861 H         1 <0>         0.0000
     46 H24         6.7931   -2.1847    1.6686 H         1 <0>         0.0000
     47 H25         2.5279   -1.8729   -0.0129 H         1 <0>         0.0000
     48 H26         5.9671   -3.6628   -1.0661 H         1 <0>         0.0000
     49 H27         2.4520   -4.5251    2.2903 H         1 <0>         0.0000
     50 H28         3.8157   -4.1378    1.3829 H         1 <0>         0.0000
@<TRIPOS>BOND
     1    1   18 am
     2    1   20 2
     3    2   12 1
     4    2   17 am
     5    2   21 2
     6    3   13 1
     7    3   16 am
     8    3   22 2
     9    4   14 1
    10    5   14 1
    11    6   15 1
    12    7   15 1
    13    8   15 1
    14    9   16 1
    15   10   12 1
    16   10   14 1
    17   11   12 1
    18   11   18 1
    19   13   15 1
    20   13   17 1
    21   18   19 1
    22    1   23 1
    23    4   24 1
    24    4   25 1
    25    4   26 1
    26    5   27 1
    27    5   28 1
    28    5   29 1
    29    6   30 1
    30    6   31 1
    31    6   32 1
    32    7   33 1
    33    7   34 1
    34    7   35 1
    35    8   36 1
    36    8   37 1
    37    8   38 1
    38    9   39 1
    39    9   40 1
    40    9   41 1
    41   10   42 1
    42   10   43 1
    43   11   44 1
    44   11   45 1
    45   12   46 1
    46   13   47 1
    47   14   48 1
    48   16   49 1
    49   17   50 1
@<TRIPOS>MOLECULE
LIGAND
   50    49     0     0     0
SMALL
NO_CHARGES

@<TRIPOS>ATOM
      1 C1          5.0743   -0.8742    3.9084 C.2       1 <0>         0.0000
      2 C2          4.7609   -2.3304    1.0158 C.2       1 <0>         0.0000
      3 C3          1.6238   -2.1763    1.4428 C.2       1 <0>         0.0000
      4 C4          7.9668   -2.9805   -0.7195 C.3       1 <0>         0.0000
      5 C5          7.2752   -5.3485   -1.1277 C.3       1 <0>         0.0000
      6 C6          2.6382   -4.8237   -1.2732 C.3       1 <0>         0.0000
      7 C7          1.4139   -5.1834    0.8654 C.3       1 <0>         0.0000
      8 C8          0.3871   -3.7862   -0.9377 C.3       1 <0>         0.0000
      9 C9          0.7109    0.0436    2.0502 C.3       1 <0>         0.0000
     10 C10         6.4903   -4.2069    0.9698 C.3       1 <0>         0.0000
     11 C11         5.6912   -3.2135    3.1734 C.3       1 <0>         0.0000
     12 C12         5.9953   -2.9363    1.6910 C.3       1 <0>         0.0000
     13 C13         2.4245   -2.8999    0.3599 C.3       1 <0>         0.0000
     14 C14         6.8518   -4.0083   -0.5189 C.3       1 <0>         0.0000
     15 C15         1.7114   -4.1488   -0.2382 C.3       1 <0>         0.0000
     16 N1          1.4216   -0.8351    1.1525 N.am      1 <0>         0.0000
     17 N2          3.6959   -3.2182    0.9688 N.am      1 <0>         0.0000
     18 N3          5.7903   -2.0436    4.0042 N.am      1 <0>         0.0000
     19 O1          6.7278   -2.1331    5.0145 O.3       1 <0>         0.0000
     20 O2          5.1856    0.1071    4.6373 O.2       1 <0>         0.0000
     21 O3          4.7482   -1.1914    0.5542 O.2       1 <0>         0.0000
     22 O4          1.2284   -2.7340    2.4655 O.2       1 <0>         0.0000
     23 H1          4.3439   -0.8710    3.0801 H         1 <0>         0.0000
     24 H2          8.8753   -3.2848   -0.1883 H         1 <0>         0.0000
     25 H3          7.6713   -1.9951   -0.3441 H         1 <0>         0.0000
     26 H4          8.2323   -2.8793   -1.7758 H         1 <0>         0.0000
     27 H5          8.1599   -5.7527   -0.6240 H         1 <0>         0.0000
     28 H6          6.4698   -6.0859   -1.0440 H         1 <0>         0.0000
     29 H7          7.5125   -5.2358   -2.1909 H         1 <0>         0.0000
     30 H8          2.8872   -4.1345   -2.0879 H         1 <0>         0.0000
     31 H9          2.1738   -5.7124   -1.7140 H         1 <0>         0.0000
     32 H10         3.5794   -5.1449   -0.8119 H         1 <0>         0.0000
     33 H11         0.7565   -4.7621    1.6349 H         1 <0>         0.0000
     34 H12         2.3282   -5.5113    1.3711 H         1 <0>         0.0000
     35 H13         0.9158   -6.0685    0.4541 H         1 <0>         0.0000
     36 H14        -0.3050   -3.3025   -0.2384 H         1 <0>         0.0000
     37 H15        -0.1179   -4.6740   -1.3329 H         1 <0>         0.0000
     38 H16         0.5457   -3.0900   -1.7676 H         1 <0>         0.0000
     39 H17        -0.3565    0.0379    1.8148 H         1 <0>         0.0000
     40 H18         1.0868    1.0659    1.9547 H         1 <0>         0.0000
     41 H19         0.8449   -0.2838    3.0846 H         1 <0>         0.0000
     42 H20         7.3727   -4.5944    1.4964 H         1 <0>         0.0000
     43 H21         5.7222   -4.9884    1.0394 H         1 <0>         0.0000
     44 H22         4.6761   -3.6079    3.2888 H         1 <0>         0.0000
     45 H23         6.3842   -3.9541    3.5861 H         1 <0>         0.0000
     46 H24         6.7931   -2.1847    1.6686 H         1 <0>         0.0000
     47 H25         2.6549   -2.1876   -0.4426 H         1 <0>         0.0000
     48 H26         5.9671   -3.6628   -1.0661 H         1 <0>         0.0000
     49 H27         1.7849   -0.4599    0.2815 H         1 <0>         0.0000
     50 H28         3.8157   -4.1378    1.3829 H         1 <0>         0.0000
@<TRIPOS>BOND
     1    1   18 am
     2    1   20 2
     3    2   12 1
     4    2   17 am
     5    2   21 2
     6    3   13 1
     7    3   16 am
     8    3   22 2
     9    4   14 1
    10    5   14 1
    11    6   15 1
    12    7   15 1
    13    8   15 1
    14    9   16 1
    15   10   12 1
    16   10   14 1
    17   11   12 1
    18   11   18 1
    19   13   15 1
    20   13   17 1
    21   18   19 1
    22    1   23 1
    23    4   24 1
    24    4   25 1
    25    4   26 1
    26    5   27 1
    27    5   28 1
    28    5   29 1
    29    6   30 1
    30    6   31 1
    31    6   32 1
    32    7   33 1
    33    7   34 1
    34    7   35 1
    35    8   36 1
    36    8   37 1
    37    8   38 1
    38    9   39 1
    39    9   40 1
    40    9   41 1
    41   10   42 1
    42   10   43 1
    43   11   44 1
    44   11   45 1
    45   12   46 1
    46   13   47 1
    47   14   48 1
    48   16   49 1
    49   17   50 1
@<TRIPOS>MOLECULE
LIGAND
   50    49     0     0     0
SMALL
NO_CHARGES

@<TRIPOS>ATOM
      1 C1          8.5105   -4.8536    1.8116 C.2       1 <0>         0.0000
      2 C2          4.7609   -2.3304    1.0158 C.2       1 <0>         0.0000
      3 C3          1.6238   -2.1763    1.4428 C.2       1 <0>         0.0000
      4 C4          5.6212   -3.8274    4.6518 C.3       1 <0>         0.0000
      5 C5          6.1055   -1.4698    5.3297 C.3       1 <0>         0.0000
      6 C6          2.6382   -4.8237   -1.2732 C.3       1 <0>         0.0000
      7 C7          1.4139   -5.1834    0.8654 C.3       1 <0>         0.0000
      8 C8          0.3871   -3.7862   -0.9377 C.3       1 <0>         0.0000
      9 C9          1.1427   -2.2044    3.8715 C.3       1 <0>         0.0000
     10 C10         6.4405   -2.1272    2.9267 C.3       1 <0>         0.0000
     11 C11         7.1342   -3.0688    0.6654 C.3       1 <0>         0.0000
     12 C12         5.9953   -2.9363    1.6910 C.3       1 <0>         0.0000
     13 C13         2.4245   -2.8999    0.3599 C.3       1 <0>         0.0000
     14 C14         5.5959   -2.3669    4.1976 C.3       1 <0>         0.0000
     15 C15         1.7114   -4.1488   -0.2382 C.3       1 <0>         0.0000
     16 N1          1.8198   -2.7177    2.7048 N.am      1 <0>         0.0000
     17 N2          3.6959   -3.2182    0.9688 N.am      1 <0>         0.0000
     18 N3          8.3392   -3.6246    1.2202 N.am      1 <0>         0.0000
     19 O1          9.4449   -2.8013    1.1353 O.3       1 <0>         0.0000
     20 O2          7.6451   -5.7091    1.9723 O.2       1 <0>         0.0000
     21 O3          4.7482   -1.1914    0.5542 O.2       1 <0>         0.0000
     22 O4          0.8744   -1.2316    1.1999 O.2       1 <0>         0.0000
     23 H1          9.5436   -5.0368    2.1563 H         1 <0>         0.0000
     24 H2          6.6467   -4.1510    4.8609 H         1 <0>         0.0000
     25 H3          5.2091   -4.4897    3.8832 H         1 <0>         0.0000
     26 H4          5.0464   -3.9704    5.5714 H         1 <0>         0.0000
     27 H5          7.1480   -1.6962    5.5783 H         1 <0>         0.0000
     28 H6          6.0453   -0.4136    5.0465 H         1 <0>         0.0000
     29 H7          5.5042   -1.6053    6.2348 H         1 <0>         0.0000
     30 H8          2.8872   -4.1345   -2.0879 H         1 <0>         0.0000
     31 H9          2.1738   -5.7124   -1.7140 H         1 <0>         0.0000
     32 H10         3.5794   -5.1449   -0.8119 H         1 <0>         0.0000
     33 H11         0.7565   -4.7621    1.6349 H         1 <0>         0.0000
     34 H12         2.3282   -5.5113    1.3711 H         1 <0>         0.0000
     35 H13         0.9158   -6.0685    0.4541 H         1 <0>         0.0000
     36 H14        -0.3050   -3.3025   -0.2384 H         1 <0>         0.0000
     37 H15        -0.1179   -4.6740   -1.3329 H         1 <0>         0.0000
     38 H16         0.5457   -3.0900   -1.7676 H         1 <0>         0.0000
     39 H17         1.7401   -1.4157    4.3360 H         1 <0>         0.0000
     40 H18         0.9874   -3.0042    4.6007 H         1 <0>         0.0000
     41 H19         0.1698   -1.7909    3.5925 H         1 <0>         0.0000
     42 H20         7.4883   -2.3678    3.1512 H         1 <0>         0.0000
     43 H21         6.4148   -1.0554    2.6895 H         1 <0>         0.0000
     44 H22         6.8299   -3.7170   -0.1632 H         1 <0>         0.0000
     45 H23         7.4005   -2.0938    0.2440 H         1 <0>         0.0000
     46 H24         5.7385   -3.9535    2.0094 H         1 <0>         0.0000
     47 H25         2.6549   -2.1876   -0.4426 H         1 <0>         0.0000
     48 H26         4.5539   -2.0890    4.0008 H         1 <0>         0.0000
     49 H27         2.4595   -3.4993    2.8111 H         1 <0>         0.0000
     50 H28         3.8157   -4.1378    1.3829 H         1 <0>         0.0000
@<TRIPOS>BOND
     1    1   18 am
     2    1   20 2
     3    2   12 1
     4    2   17 am
     5    2   21 2
     6    3   13 1
     7    3   16 am
     8    3   22 2
     9    4   14 1
    10    5   14 1
    11    6   15 1
    12    7   15 1
    13    8   15 1
    14    9   16 1
    15   10   12 1
    16   10   14 1
    17   11   12 1
    18   11   18 1
    19   13   15 1
    20   13   17 1
    21   18   19 1
    22    1   23 1
    23    4   24 1
    24    4   25 1
    25    4   26 1
    26    5   27 1
    27    5   28 1
    28    5   29 1
    29    6   30 1
    30    6   31 1
    31    6   32 1
    32    7   33 1
    33    7   34 1
    34    7   35 1
    35    8   36 1
    36    8   37 1
    37    8   38 1
    38    9   39 1
    39    9   40 1
    40    9   41 1
    41   10   42 1
    42   10   43 1
    43   11   44 1
    44   11   45 1
    45   12   46 1
    46   13   47 1
    47   14   48 1
    48   16   49 1
    49   17   50 1
@<TRIPOS>MOLECULE
LIGAND
   50    49     0     0     0
SMALL
NO_CHARGES

@<TRIPOS>ATOM
      1 C1          6.4269   -5.5423    3.8286 C.2       1 <0>         0.0000
      2 C2          4.7609   -2.3304    1.0158 C.2       1 <0>         0.0000
      3 C3          1.6238   -2.1763    1.4428 C.2       1 <0>         0.0000
      4 C4          7.9668   -2.9805   -0.7195 C.3       1 <0>         0.0000
      5 C5          7.2752   -5.3485   -1.1277 C.3       1 <0>         0.0000
      6 C6          2.6382   -4.8237   -1.2732 C.3       1 <0>         0.0000
      7 C7          1.4139   -5.1834    0.8654 C.3       1 <0>         0.0000
      8 C8          0.3871   -3.7862   -0.9377 C.3       1 <0>         0.0000
      9 C9          1.1427   -2.2044    3.8715 C.3       1 <0>         0.0000
     10 C10         6.4903   -4.2069    0.9698 C.3       1 <0>         0.0000
     11 C11         5.6912   -3.2135    3.1734 C.3       1 <0>         0.0000
     12 C12         5.9953   -2.9363    1.6910 C.3       1 <0>         0.0000
     13 C13         2.4245   -2.8999    0.3599 C.3       1 <0>         0.0000
     14 C14         6.8518   -4.0083   -0.5189 C.3       1 <0>         0.0000
     15 C15         1.7114   -4.1488   -0.2382 C.3       1 <0>         0.0000
     16 N1          1.8198   -2.7177    2.7048 N.am      1 <0>         0.0000
     17 N2          3.6959   -3.2182    0.9688 N.am      1 <0>         0.0000
     18 N3          6.5786   -4.1775    3.7667 N.am      1 <0>         0.0000
     19 O1          7.7150   -3.6386    4.3375 O.3       1 <0>         0.0000
     20 O2          5.4864   -6.1895    3.3779 O.2       1 <0>         0.0000
     21 O3          4.7482   -1.1914    0.5542 O.2       1 <0>         0.0000
     22 O4          0.8744   -1.2316    1.1999 O.2       1 <0>         0.0000
     23 H1          7.2586   -6.0555    4.3429 H         1 <0>         0.0000
     24 H2          8.8753   -3.2848   -0.1883 H         1 <0>         0.0000
     25 H3          7.6713   -1.9951   -0.3441 H         1 <0>         0.0000
     26 H4          8.2323   -2.8793   -1.7758 H         1 <0>         0.0000
     27 H5          8.1599   -5.7527   -0.6240 H         1 <0>         0.0000
     28 H6          6.4698   -6.0859   -1.0440 H         1 <0>         0.0000
     29 H7          7.5125   -5.2358   -2.1909 H         1 <0>         0.0000
     30 H8          2.8872   -4.1345   -2.0879 H         1 <0>         0.0000
     31 H9          2.1738   -5.7124   -1.7140 H         1 <0>         0.0000
     32 H10         3.5794   -5.1449   -0.8119 H         1 <0>         0.0000
     33 H11         0.7565   -4.7621    1.6349 H         1 <0>         0.0000
     34 H12         2.3282   -5.5113    1.3711 H         1 <0>         0.0000
     35 H13         0.9158   -6.0685    0.4541 H         1 <0>         0.0000
     36 H14        -0.3050   -3.3025   -0.2384 H         1 <0>         0.0000
     37 H15        -0.1179   -4.6740   -1.3329 H         1 <0>         0.0000
     38 H16         0.5457   -3.0900   -1.7676 H         1 <0>         0.0000
     39 H17         1.7401   -1.4157    4.3360 H         1 <0>         0.0000
     40 H18         0.9874   -3.0042    4.6007 H         1 <0>         0.0000
     41 H19         0.1698   -1.7909    3.5925 H         1 <0>         0.0000
     42 H20         7.3727   -4.5944    1.4964 H         1 <0>         0.0000
     43 H21         5.7222   -4.9884    1.0394 H         1 <0>         0.0000
     44 H22         5.7741   -2.2925    3.7601 H         1 <0>         0.0000
     45 H23         4.6743   -3.5988    3.3018 H         1 <0>         0.0000
     46 H24         6.7931   -2.1847    1.6686 H         1 <0>         0.0000
     47 H25         2.6549   -2.1876   -0.4426 H         1 <0>         0.0000
     48 H26         5.9671   -3.6628   -1.0661 H         1 <0>         0.0000
     49 H27         2.4595   -3.4993    2.8111 H         1 <0>         0.0000
     50 H28         3.8157   -4.1378    1.3829 H         1 <0>         0.0000
@<TRIPOS>BOND
     1    1   18 am
     2    1   20 2
     3    2   12 1
     4    2   17 am
     5    2   21 2
     6    3   13 1
     7    3   16 am
     8    3   22 2
     9    4   14 1
    10    5   14 1
    11    6   15 1
    12    7   15 1
    13    8   15 1
    14    9   16 1
    15   10   12 1
    16   10   14 1
    17   11   12 1
    18   11   18 1
    19   13   15 1
    20   13   17 1
    21   18   19 1
    22    1   23 1
    23    4   24 1
    24    4   25 1
    25    4   26 1
    26    5   27 1
    27    5   28 1
    28    5   29 1
    29    6   30 1
    30    6   31 1
    31    6   32 1
    32    7   33 1
    33    7   34 1
    34    7   35 1
    35    8   36 1
    36    8   37 1
    37    8   38 1
    38    9   39 1
    39    9   40 1
    40    9   41 1
    41   10   42 1
    42   10   43 1
    43   11   44 1
    44   11   45 1
    45   12   46 1
    46   13   47 1
    47   14   48 1
    48   16   49 1
    49   17   50 1
@<TRIPOS>MOLECULE
LIGAND
   50    49     0     0     0
SMALL
NO_CHARGES

@<TRIPOS>ATOM
      1 C1          5.2485   -0.8480    3.9490 C.2       1 <0>         0.0000
      2 C2          4.7609   -2.3304    1.0158 C.2       1 <0>         0.0000
      3 C3          1.6238   -2.1763    1.4428 C.2       1 <0>         0.0000
      4 C4          7.9668   -2.9805   -0.7195 C.3       1 <0>         0.0000
      5 C5          7.2752   -5.3485   -1.1277 C.3       1 <0>         0.0000
      6 C6          2.6382   -4.8237   -1.2732 C.3       1 <0>         0.0000
      7 C7          1.4139   -5.1834    0.8654 C.3       1 <0>         0.0000
      8 C8          0.3871   -3.7862   -0.9377 C.3       1 <0>         0.0000
      9 C9          0.7109    0.0436    2.0502 C.3       1 <0>         0.0000
     10 C10         6.4903   -4.2069    0.9698 C.3       1 <0>         0.0000
     11 C11         5.6912   -3.2135    3.1734 C.3       1 <0>         0.0000
     12 C12         5.9953   -2.9363    1.6910 C.3       1 <0>         0.0000
     13 C13         2.4245   -2.8999    0.3599 C.3       1 <0>         0.0000
     14 C14         6.8518   -4.0083   -0.5189 C.3       1 <0>         0.0000
     15 C15         1.7114   -4.1488   -0.2382 C.3       1 <0>         0.0000
     16 N1          1.4216   -0.8351    1.1525 N.am      1 <0>         0.0000
     17 N2          3.6959   -3.2182    0.9688 N.am      1 <0>         0.0000
     18 N3          4.9199   -2.1744    3.8012 N.am      1 <0>         0.0000
     19 O1          3.7039   -2.5877    4.3094 O.3       1 <0>         0.0000
     20 O2          4.5636    0.0136    4.4922 O.2       1 <0>         0.0000
     21 O3          4.7482   -1.1914    0.5542 O.2       1 <0>         0.0000
     22 O4          1.2284   -2.7340    2.4655 O.2       1 <0>         0.0000
     23 H1          6.2325   -0.5872    3.5207 H         1 <0>         0.0000
     24 H2          8.8753   -3.2848   -0.1883 H         1 <0>         0.0000
     25 H3          7.6713   -1.9951   -0.3441 H         1 <0>         0.0000
     26 H4          8.2323   -2.8793   -1.7758 H         1 <0>         0.0000
     27 H5          8.1599   -5.7527   -0.6240 H         1 <0>         0.0000
     28 H6          6.4698   -6.0859   -1.0440 H         1 <0>         0.0000
     29 H7          7.5125   -5.2358   -2.1909 H         1 <0>         0.0000
     30 H8          2.8872   -4.1345   -2.0879 H         1 <0>         0.0000
     31 H9          2.1738   -5.7124   -1.7140 H         1 <0>         0.0000
     32 H10         3.5794   -5.1449   -0.8119 H         1 <0>         0.0000
     33 H11         0.7565   -4.7621    1.6349 H         1 <0>         0.0000
     34 H12         2.3282   -5.5113    1.3711 H         1 <0>         0.0000
     35 H13         0.9158   -6.0685    0.4541 H         1 <0>         0.0000
     36 H14        -0.3050   -3.3025   -0.2384 H         1 <0>         0.0000
     37 H15        -0.1179   -4.6740   -1.3329 H         1 <0>         0.0000
     38 H16         0.5457   -3.0900   -1.7676 H         1 <0>         0.0000
     39 H17        -0.3565    0.0379    1.8148 H         1 <0>         0.0000
     40 H18         1.0868    1.0659    1.9547 H         1 <0>         0.0000
     41 H19         0.8449   -0.2838    3.0846 H         1 <0>         0.0000
     42 H20         7.3727   -4.5944    1.4964 H         1 <0>         0.0000
     43 H21         5.7222   -4.9884    1.0394 H         1 <0>         0.0000
     44 H22         5.1267   -4.1459    3.2806 H         1 <0>         0.0000
     45 H23         6.6147   -3.3158    3.7527 H         1 <0>         0.0000
     46 H24         6.7931   -2.1847    1.6686 H         1 <0>         0.0000
     47 H25         2.6549   -2.1876   -0.4426 H         1 <0>         0.0000
     48 H26         5.9671   -3.6628   -1.0661 H         1 <0>         0.0000
     49 H27         1.7849   -0.4599    0.2815 H         1 <0>         0.0000
     50 H28         3.8157   -4.1378    1.3829 H         1 <0>         0.0000
@<TRIPOS>BOND
     1    1   18 am
     2    1   20 2
     3    2   12 1
     4    2   17 am
     5    2   21 2
     6    3   13 1
     7    3   16 am
     8    3   22 2
     9    4   14 1
    10    5   14 1
    11    6   15 1
    12    7   15 1
    13    8   15 1
    14    9   16 1
    15   10   12 1
    16   10   14 1
    17   11   12 1
    18   11   18 1
    19   13   15 1
    20   13   17 1
    21   18   19 1
    22    1   23 1
    23    4   24 1
    24    4   25 1
    25    4   26 1
    26    5   27 1
    27    5   28 1
    28    5   29 1
    29    6   30 1
    30    6   31 1
    31    6   32 1
    32    7   33 1
    33    7   34 1
    34    7   35 1
    35    8   36 1
    36    8   37 1
    37    8   38 1
    38    9   39 1
    39    9   40 1
    40    9   41 1
    41   10   42 1
    42   10   43 1
    43   11   44 1
    44   11   45 1
    45   12   46 1
    46   13   47 1
    47   14   48 1
    48   16   49 1
    49   17   50 1
@<TRIPOS>MOLECULE
LIGAND
   50    49     0     0     0
SMALL
NO_CHARGES

@<TRIPOS>ATOM
      1 C1          9.4872   -3.7737    1.2654 C.2       1 <0>         0.0000
      2 C2          4.7609   -2.3304    1.0158 C.2       1 <0>         0.0000
      3 C3          1.6238   -2.1763    1.4428 C.2       1 <0>         0.0000
      4 C4          4.8998   -3.3220    4.5808 C.3       1 <0>         0.0000
      5 C5          5.9126   -1.1117    5.1647 C.3       1 <0>         0.0000
      6 C6          2.6382   -4.8237   -1.2732 C.3       1 <0>         0.0000
      7 C7          1.4139   -5.1834    0.8654 C.3       1 <0>         0.0000
      8 C8          0.3871   -3.7862   -0.9377 C.3       1 <0>         0.0000
      9 C9          1.3383    0.0348    2.5199 C.3       1 <0>         0.0000
     10 C10         6.4405   -2.1272    2.9267 C.3       1 <0>         0.0000
     11 C11         7.1342   -3.0688    0.6654 C.3       1 <0>         0.0000
     12 C12         5.9953   -2.9363    1.6910 C.3       1 <0>         0.0000
     13 C13         2.4245   -2.8999    0.3599 C.3       1 <0>         0.0000
     14 C14         5.3645   -1.9750    4.0244 C.3       1 <0>         0.0000
     15 C15         1.7114   -4.1488   -0.2382 C.3       1 <0>         0.0000
     16 N1          1.9549   -0.8333    1.5455 N.am      1 <0>         0.0000
     17 N2          3.6959   -3.2182    0.9688 N.am      1 <0>         0.0000
     18 N3          8.1489   -4.0093    1.0586 N.am      1 <0>         0.0000
     19 O1          7.6955   -5.3007    1.2443 O.3       1 <0>         0.0000
     20 O2         10.0613   -2.6952    1.1476 O.2       1 <0>         0.0000
     21 O3          4.7482   -1.1914    0.5542 O.2       1 <0>         0.0000
     22 O4          0.7950   -2.7447    2.1522 O.2       1 <0>         0.0000
     23 H1         10.0524   -4.6743    1.5640 H         1 <0>         0.0000
     24 H2          5.7423   -3.8772    5.0075 H         1 <0>         0.0000
     25 H3          4.4501   -3.9417    3.7978 H         1 <0>         0.0000
     26 H4          4.1642   -3.1925    5.3800 H         1 <0>         0.0000
     27 H5          6.7922   -1.5734    5.6261 H         1 <0>         0.0000
     28 H6          6.2016   -0.1209    4.7985 H         1 <0>         0.0000
     29 H7          5.1564   -0.9697    5.9440 H         1 <0>         0.0000
     30 H8          2.8872   -4.1345   -2.0879 H         1 <0>         0.0000
     31 H9          2.1738   -5.7124   -1.7140 H         1 <0>         0.0000
     32 H10         3.5794   -5.1449   -0.8119 H         1 <0>         0.0000
     33 H11         0.7565   -4.7621    1.6349 H         1 <0>         0.0000
     34 H12         2.3282   -5.5113    1.3711 H         1 <0>         0.0000
     35 H13         0.9158   -6.0685    0.4541 H         1 <0>         0.0000
     36 H14        -0.3050   -3.3025   -0.2384 H         1 <0>         0.0000
     37 H15        -0.1179   -4.6740   -1.3329 H         1 <0>         0.0000
     38 H16         0.5457   -3.0900   -1.7676 H         1 <0>         0.0000
     39 H17         0.4402    0.4941    2.0989 H         1 <0>         0.0000
     40 H18         2.0331    0.8259    2.8147 H         1 <0>         0.0000
     41 H19         1.0580   -0.5350    3.4100 H         1 <0>         0.0000
     42 H20         7.3251   -2.6069    3.3666 H         1 <0>         0.0000
     43 H21         6.7588   -1.1249    2.6110 H         1 <0>         0.0000
     44 H22         6.7419   -3.4007   -0.3017 H         1 <0>         0.0000
     45 H23         7.6368   -2.1087    0.5083 H         1 <0>         0.0000
     46 H24         5.7385   -3.9535    2.0094 H         1 <0>         0.0000
     47 H25         2.6549   -2.1876   -0.4426 H         1 <0>         0.0000
     48 H26         4.4913   -1.4577    3.6101 H         1 <0>         0.0000
     49 H27         2.6527   -0.4488    0.9157 H         1 <0>         0.0000
     50 H28         3.8157   -4.1378    1.3829 H         1 <0>         0.0000
@<TRIPOS>BOND
     1    1   18 am
     2    1   20 2
     3    2   12 1
     4    2   17 am
     5    2   21 2
     6    3   13 1
     7    3   16 am
     8    3   22 2
     9    4   14 1
    10    5   14 1
    11    6   15 1
    12    7   15 1
    13    8   15 1
    14    9   16 1
    15   10   12 1
    16   10   14 1
    17   11   12 1
    18   11   18 1
    19   13   15 1
    20   13   17 1
    21   18   19 1
    22    1   23 1
    23    4   24 1
    24    4   25 1
    25    4   26 1
    26    5   27 1
    27    5   28 1
    28    5   29 1
    29    6   30 1
    30    6   31 1
    31    6   32 1
    32    7   33 1
    33    7   34 1
    34    7   35 1
    35    8   36 1
    36    8   37 1
    37    8   38 1
    38    9   39 1
    39    9   40 1
    40    9   41 1
    41   10   42 1
    42   10   43 1
    43   11   44 1
    44   11   45 1
    45   12   46 1
    46   13   47 1
    47   14   48 1
    48   16   49 1
    49   17   50 1
@<TRIPOS>MOLECULE
LIGAND
   50    49     0     0     0
SMALL
NO_CHARGES

@<TRIPOS>ATOM
      1 C1          8.0539   -3.2639    4.0726 C.2       1 <0>         0.0000
      2 C2          4.7609   -2.3304    1.0158 C.2       1 <0>         0.0000
      3 C3          1.6238   -2.1763    1.4428 C.2       1 <0>         0.0000
      4 C4          7.9668   -2.9805   -0.7195 C.3       1 <0>         0.0000
      5 C5          7.2752   -5.3485   -1.1277 C.3       1 <0>         0.0000
      6 C6          2.6382   -4.8237   -1.2732 C.3       1 <0>         0.0000
      7 C7          1.4139   -5.1834    0.8654 C.3       1 <0>         0.0000
      8 C8          0.3871   -3.7862   -0.9377 C.3       1 <0>         0.0000
      9 C9          1.1427   -2.2044    3.8715 C.3       1 <0>         0.0000
     10 C10         6.4903   -4.2069    0.9698 C.3       1 <0>         0.0000
     11 C11         5.6912   -3.2135    3.1734 C.3       1 <0>         0.0000
     12 C12         5.9953   -2.9363    1.6910 C.3       1 <0>         0.0000
     13 C13         2.4245   -2.8999    0.3599 C.3       1 <0>         0.0000
     14 C14         6.8518   -4.0083   -0.5189 C.3       1 <0>         0.0000
     15 C15         1.7114   -4.1488   -0.2382 C.3       1 <0>         0.0000
     16 N1          1.8198   -2.7177    2.7048 N.am      1 <0>         0.0000
     17 N2          3.6959   -3.2182    0.9688 N.am      1 <0>         0.0000
     18 N3          6.7994   -3.7930    3.8839 N.am      1 <0>         0.0000
     19 O1          6.5444   -5.0339    4.4343 O.3       1 <0>         0.0000
     20 O2          8.9783   -3.7882    4.6866 O.2       1 <0>         0.0000
     21 O3          4.7482   -1.1914    0.5542 O.2       1 <0>         0.0000
     22 O4          0.8744   -1.2316    1.1999 O.2       1 <0>         0.0000
     23 H1          8.1885   -2.2717    3.6067 H         1 <0>         0.0000
     24 H2          8.8753   -3.2848   -0.1883 H         1 <0>         0.0000
     25 H3          7.6713   -1.9951   -0.3441 H         1 <0>         0.0000
     26 H4          8.2323   -2.8793   -1.7758 H         1 <0>         0.0000
     27 H5          8.1599   -5.7527   -0.6240 H         1 <0>         0.0000
     28 H6          6.4698   -6.0859   -1.0440 H         1 <0>         0.0000
     29 H7          7.5125   -5.2358   -2.1909 H         1 <0>         0.0000
     30 H8          2.8872   -4.1345   -2.0879 H         1 <0>         0.0000
     31 H9          2.1738   -5.7124   -1.7140 H         1 <0>         0.0000
     32 H10         3.5794   -5.1449   -0.8119 H         1 <0>         0.0000
     33 H11         0.7565   -4.7621    1.6349 H         1 <0>         0.0000
     34 H12         2.3282   -5.5113    1.3711 H         1 <0>         0.0000
     35 H13         0.9158   -6.0685    0.4541 H         1 <0>         0.0000
     36 H14        -0.3050   -3.3025   -0.2384 H         1 <0>         0.0000
     37 H15        -0.1179   -4.6740   -1.3329 H         1 <0>         0.0000
     38 H16         0.5457   -3.0900   -1.7676 H         1 <0>         0.0000
     39 H17         1.7401   -1.4157    4.3360 H         1 <0>         0.0000
     40 H18         0.9874   -3.0042    4.6007 H         1 <0>         0.0000
     41 H19         0.1698   -1.7909    3.5925 H         1 <0>         0.0000
     42 H20         7.3727   -4.5944    1.4964 H         1 <0>         0.0000
     43 H21         5.7222   -4.9884    1.0394 H         1 <0>         0.0000
     44 H22         5.4249   -2.2852    3.6898 H         1 <0>         0.0000
     45 H23         4.8500   -3.9063    3.2803 H         1 <0>         0.0000
     46 H24         6.7931   -2.1847    1.6686 H         1 <0>         0.0000
     47 H25         2.6549   -2.1876   -0.4426 H         1 <0>         0.0000
     48 H26         5.9671   -3.6628   -1.0661 H         1 <0>         0.0000
     49 H27         2.4595   -3.4993    2.8111 H         1 <0>         0.0000
     50 H28         3.8157   -4.1378    1.3829 H         1 <0>         0.0000
@<TRIPOS>BOND
     1    1   18 am
     2    1   20 2
     3    2   12 1
     4    2   17 am
     5    2   21 2
     6    3   13 1
     7    3   16 am
     8    3   22 2
     9    4   14 1
    10    5   14 1
    11    6   15 1
    12    7   15 1
    13    8   15 1
    14    9   16 1
    15   10   12 1
    16   10   14 1
    17   11   12 1
    18   11   18 1
    19   13   15 1
    20   13   17 1
    21   18   19 1
    22    1   23 1
    23    4   24 1
    24    4   25 1
    25    4   26 1
    26    5   27 1
    27    5   28 1
    28    5   29 1
    29    6   30 1
    30    6   31 1
    31    6   32 1
    32    7   33 1
    33    7   34 1
    34    7   35 1
    35    8   36 1
    36    8   37 1
    37    8   38 1
    38    9   39 1
    39    9   40 1
    40    9   41 1
    41   10   42 1
    42   10   43 1
    43   11   44 1
    44   11   45 1
    45   12   46 1
    46   13   47 1
    47   14   48 1
    48   16   49 1
    49   17   50 1
@<TRIPOS>MOLECULE
LIGAND
   50    49     0     0     0
SMALL
NO_CHARGES

@<TRIPOS>ATOM
      1 C1          6.8953   -4.2650   -1.5494 C.2       1 <0>         0.0000
      2 C2          4.7609   -2.3304    1.0158 C.2       1 <0>         0.0000
      3 C3          1.3743   -3.6105    1.2141 C.2       1 <0>         0.0000
      4 C4          4.8998   -3.3220    4.5808 C.3       1 <0>         0.0000
      5 C5          5.9126   -1.1117    5.1647 C.3       1 <0>         0.0000
      6 C6          3.5112   -2.5312   -1.8976 C.3       1 <0>         0.0000
      7 C7          2.5798   -4.7765   -1.3563 C.3       1 <0>         0.0000
      8 C8          1.0336   -2.8618   -1.8044 C.3       1 <0>         0.0000
      9 C9          0.6347   -3.9155    3.5573 C.3       1 <0>         0.0000
     10 C10         6.4405   -2.1272    2.9267 C.3       1 <0>         0.0000
     11 C11         7.1342   -3.0688    0.6654 C.3       1 <0>         0.0000
     12 C12         5.9953   -2.9363    1.6910 C.3       1 <0>         0.0000
     13 C13         2.4245   -2.8999    0.3599 C.3       1 <0>         0.0000
     14 C14         5.3645   -1.9750    4.0244 C.3       1 <0>         0.0000
     15 C15         2.3718   -3.2623   -1.1540 C.3       1 <0>         0.0000
     16 N1          1.5064   -3.3313    2.5663 N.am      1 <0>         0.0000
     17 N2          3.6959   -3.2182    0.9688 N.am      1 <0>         0.0000
     18 N3          7.0083   -4.2255   -0.1801 N.am      1 <0>         0.0000
     19 O1          7.0029   -5.4319    0.4925 O.3       1 <0>         0.0000
     20 O2          6.8819   -3.2979   -2.3051 O.2       1 <0>         0.0000
     21 O3          4.7482   -1.1914    0.5542 O.2       1 <0>         0.0000
     22 O4          0.5249   -4.3627    0.7389 O.2       1 <0>         0.0000
     23 H1          6.8117   -5.2886   -1.9555 H         1 <0>         0.0000
     24 H2          5.7423   -3.8772    5.0075 H         1 <0>         0.0000
     25 H3          4.4501   -3.9417    3.7978 H         1 <0>         0.0000
     26 H4          4.1642   -3.1925    5.3800 H         1 <0>         0.0000
     27 H5          6.7922   -1.5734    5.6261 H         1 <0>         0.0000
     28 H6          6.2016   -0.1209    4.7985 H         1 <0>         0.0000
     29 H7          5.1564   -0.9697    5.9440 H         1 <0>         0.0000
     30 H8          3.4182   -1.4447   -1.7906 H         1 <0>         0.0000
     31 H9          3.5120   -2.7653   -2.9677 H         1 <0>         0.0000
     32 H10         4.4918   -2.8203   -1.5020 H         1 <0>         0.0000
     33 H11         1.7979   -5.3538   -0.8491 H         1 <0>         0.0000
     34 H12         3.5395   -5.1121   -0.9494 H         1 <0>         0.0000
     35 H13         2.5489   -5.0416   -2.4191 H         1 <0>         0.0000
     36 H14         0.1926   -3.3589   -1.3070 H         1 <0>         0.0000
     37 H15         0.9978   -3.1431   -2.8622 H         1 <0>         0.0000
     38 H16         0.8573   -1.7835   -1.7352 H         1 <0>         0.0000
     39 H17        -0.2373   -3.2755    3.7147 H         1 <0>         0.0000
     40 H18         1.1644   -4.0284    4.5071 H         1 <0>         0.0000
     41 H19         0.2935   -4.9003    3.2271 H         1 <0>         0.0000
     42 H20         7.3251   -2.6069    3.3666 H         1 <0>         0.0000
     43 H21         6.7588   -1.1249    2.6110 H         1 <0>         0.0000
     44 H22         7.1645   -2.1910    0.0112 H         1 <0>         0.0000
     45 H23         8.1063   -3.1455    1.1636 H         1 <0>         0.0000
     46 H24         5.7385   -3.9535    2.0094 H         1 <0>         0.0000
     47 H25         2.3043   -1.8161    0.4837 H         1 <0>         0.0000
     48 H26         4.4913   -1.4577    3.6101 H         1 <0>         0.0000
     49 H27         2.2391   -2.6962    2.8684 H         1 <0>         0.0000
     50 H28         3.8157   -4.1378    1.3829 H         1 <0>         0.0000
@<TRIPOS>BOND
     1    1   18 am
     2    1   20 2
     3    2   12 1
     4    2   17 am
     5    2   21 2
     6    3   13 1
     7    3   16 am
     8    3   22 2
     9    4   14 1
    10    5   14 1
    11    6   15 1
    12    7   15 1
    13    8   15 1
    14    9   16 1
    15   10   12 1
    16   10   14 1
    17   11   12 1
    18   11   18 1
    19   13   15 1
    20   13   17 1
    21   18   19 1
    22    1   23 1
    23    4   24 1
    24    4   25 1
    25    4   26 1
    26    5   27 1
    27    5   28 1
    28    5   29 1
    29    6   30 1
    30    6   31 1
    31    6   32 1
    32    7   33 1
    33    7   34 1
    34    7   35 1
    35    8   36 1
    36    8   37 1
    37    8   38 1
    38    9   39 1
    39    9   40 1
    40    9   41 1
    41   10   42 1
    42   10   43 1
    43   11   44 1
    44   11   45 1
    45   12   46 1
    46   13   47 1
    47   14   48 1
    48   16   49 1
    49   17   50 1
@<TRIPOS>MOLECULE
LIGAND
   50    49     0     0     0
SMALL
NO_CHARGES

@<TRIPOS>ATOM
      1 C1          6.0978   -0.9016    4.1132 C.2       1 <0>         0.0000
      2 C2          4.7609   -2.3304    1.0158 C.2       1 <0>         0.0000
      3 C3          1.4114   -2.9063    1.5049 C.2       1 <0>         0.0000
      4 C4          8.5547   -3.1178   -0.0742 C.3       1 <0>         0.0000
      5 C5          7.6782   -5.2829   -0.9666 C.3       1 <0>         0.0000
      6 C6          3.1857   -3.8003   -1.8813 C.3       1 <0>         0.0000
      7 C7          1.9543   -5.3076   -0.3278 C.3       1 <0>         0.0000
      8 C8          0.7370   -3.4626   -1.4991 C.3       1 <0>         0.0000
      9 C9          0.8046   -4.1182    3.5770 C.3       1 <0>         0.0000
     10 C10         6.4903   -4.2069    0.9698 C.3       1 <0>         0.0000
     11 C11         5.6912   -3.2135    3.1734 C.3       1 <0>         0.0000
     12 C12         5.9953   -2.9363    1.6910 C.3       1 <0>         0.0000
     13 C13         2.4245   -2.8999    0.3599 C.3       1 <0>         0.0000
     14 C14         7.2936   -3.9469   -0.3237 C.3       1 <0>         0.0000
     15 C15         2.0646   -3.8508   -0.8201 C.3       1 <0>         0.0000
     16 N1          1.6532   -3.9132    2.4277 N.am      1 <0>         0.0000
     17 N2          3.6959   -3.2182    0.9688 N.am      1 <0>         0.0000
     18 N3          5.3407   -2.0316    3.9142 N.am      1 <0>         0.0000
     19 O1          4.0837   -2.0623    4.4856 O.3       1 <0>         0.0000
     20 O2          7.2298   -0.7010    3.6833 O.2       1 <0>         0.0000
     21 O3          4.7482   -1.1914    0.5542 O.2       1 <0>         0.0000
     22 O4          0.4758   -2.1105    1.5728 O.2       1 <0>         0.0000
     23 H1          5.5914   -0.1337    4.7244 H         1 <0>         0.0000
     24 H2          9.2158   -3.6219    0.6392 H         1 <0>         0.0000
     25 H3          8.3079   -2.1320    0.3339 H         1 <0>         0.0000
     26 H4          9.1275   -2.9738   -0.9949 H         1 <0>         0.0000
     27 H5          8.3104   -5.8785   -0.2992 H         1 <0>         0.0000
     28 H6          6.7859   -5.8716   -1.2045 H         1 <0>         0.0000
     29 H7          8.2280   -5.1221   -1.9000 H         1 <0>         0.0000
     30 H8          3.3133   -2.7845   -2.2720 H         1 <0>         0.0000
     31 H9          2.9723   -4.4622   -2.7277 H         1 <0>         0.0000
     32 H10         4.1465   -4.1154   -1.4578 H         1 <0>         0.0000
     33 H11         1.1705   -5.4095    0.4319 H         1 <0>         0.0000
     34 H12         2.8879   -5.6535    0.1281 H         1 <0>         0.0000
     35 H13         1.7055   -5.9859   -1.1517 H         1 <0>         0.0000
     36 H14        -0.0909   -3.4848   -0.7807 H         1 <0>         0.0000
     37 H15         0.4812   -4.1517   -2.3109 H         1 <0>         0.0000
     38 H16         0.7762   -2.4505   -1.9146 H         1 <0>         0.0000
     39 H17         1.1692   -3.5298    4.4230 H         1 <0>         0.0000
     40 H18         0.7992   -5.1745    3.8593 H         1 <0>         0.0000
     41 H19        -0.2198   -3.8109    3.3501 H         1 <0>         0.0000
     42 H20         7.1160   -4.7876    1.6607 H         1 <0>         0.0000
     43 H21         5.6310   -4.8442    0.7228 H         1 <0>         0.0000
     44 H22         4.8556   -3.9151    3.2682 H         1 <0>         0.0000
     45 H23         6.5563   -3.6574    3.6769 H         1 <0>         0.0000
     46 H24         6.7931   -2.1847    1.6686 H         1 <0>         0.0000
     47 H25         2.5279   -1.8729   -0.0129 H         1 <0>         0.0000
     48 H26         6.6656   -3.4052   -1.0405 H         1 <0>         0.0000
     49 H27         2.4520   -4.5251    2.2903 H         1 <0>         0.0000
     50 H28         3.8157   -4.1378    1.3829 H         1 <0>         0.0000
@<TRIPOS>BOND
     1    1   18 am
     2    1   20 2
     3    2   12 1
     4    2   17 am
     5    2   21 2
     6    3   13 1
     7    3   16 am
     8    3   22 2
     9    4   14 1
    10    5   14 1
    11    6   15 1
    12    7   15 1
    13    8   15 1
    14    9   16 1
    15   10   12 1
    16   10   14 1
    17   11   12 1
    18   11   18 1
    19   13   15 1
    20   13   17 1
    21   18   19 1
    22    1   23 1
    23    4   24 1
    24    4   25 1
    25    4   26 1
    26    5   27 1
    27    5   28 1
    28    5   29 1
    29    6   30 1
    30    6   31 1
    31    6   32 1
    32    7   33 1
    33    7   34 1
    34    7   35 1
    35    8   36 1
    36    8   37 1
    37    8   38 1
    38    9   39 1
    39    9   40 1
    40    9   41 1
    41   10   42 1
    42   10   43 1
    43   11   44 1
    44   11   45 1
    45   12   46 1
    46   13   47 1
    47   14   48 1
    48   16   49 1
    49   17   50 1
@<TRIPOS>MOLECULE
LIGAND
   50    49     0     0     0
SMALL
NO_CHARGES

@<TRIPOS>ATOM
      1 C1          4.8014   -1.1421    4.3182 C.2       1 <0>         0.0000
      2 C2          4.7609   -2.3304    1.0158 C.2       1 <0>         0.0000
      3 C3          1.3743   -3.6105    1.2141 C.2       1 <0>         0.0000
      4 C4          8.5547   -3.1178   -0.0742 C.3       1 <0>         0.0000
      5 C5          7.6782   -5.2829   -0.9666 C.3       1 <0>         0.0000
      6 C6          3.5112   -2.5312   -1.8976 C.3       1 <0>         0.0000
      7 C7          2.5798   -4.7765   -1.3563 C.3       1 <0>         0.0000
      8 C8          1.0336   -2.8618   -1.8044 C.3       1 <0>         0.0000
      9 C9          0.6347   -3.9155    3.5573 C.3       1 <0>         0.0000
     10 C10         6.4903   -4.2069    0.9698 C.3       1 <0>         0.0000
     11 C11         5.6912   -3.2135    3.1734 C.3       1 <0>         0.0000
     12 C12         5.9953   -2.9363    1.6910 C.3       1 <0>         0.0000
     13 C13         2.4245   -2.8999    0.3599 C.3       1 <0>         0.0000
     14 C14         7.2936   -3.9469   -0.3237 C.3       1 <0>         0.0000
     15 C15         2.3718   -3.2623   -1.1540 C.3       1 <0>         0.0000
     16 N1          1.5064   -3.3313    2.5663 N.am      1 <0>         0.0000
     17 N2          3.6959   -3.2182    0.9688 N.am      1 <0>         0.0000
     18 N3          5.7903   -2.0436    4.0042 N.am      1 <0>         0.0000
     19 O1          7.0443   -1.8225    4.5393 O.3       1 <0>         0.0000
     20 O2          3.6358   -1.1801    3.9353 O.2       1 <0>         0.0000
     21 O3          4.7482   -1.1914    0.5542 O.2       1 <0>         0.0000
     22 O4          0.5249   -4.3627    0.7389 O.2       1 <0>         0.0000
     23 H1          5.1422   -0.3267    4.9806 H         1 <0>         0.0000
     24 H2          9.2158   -3.6219    0.6392 H         1 <0>         0.0000
     25 H3          8.3079   -2.1320    0.3339 H         1 <0>         0.0000
     26 H4          9.1275   -2.9738   -0.9949 H         1 <0>         0.0000
     27 H5          8.3104   -5.8785   -0.2992 H         1 <0>         0.0000
     28 H6          6.7859   -5.8716   -1.2045 H         1 <0>         0.0000
     29 H7          8.2280   -5.1221   -1.9000 H         1 <0>         0.0000
     30 H8          3.4182   -1.4447   -1.7906 H         1 <0>         0.0000
     31 H9          3.5120   -2.7653   -2.9677 H         1 <0>         0.0000
     32 H10         4.4918   -2.8203   -1.5020 H         1 <0>         0.0000
     33 H11         1.7979   -5.3538   -0.8491 H         1 <0>         0.0000
     34 H12         3.5395   -5.1121   -0.9494 H         1 <0>         0.0000
     35 H13         2.5489   -5.0416   -2.4191 H         1 <0>         0.0000
     36 H14         0.1926   -3.3589   -1.3070 H         1 <0>         0.0000
     37 H15         0.9978   -3.1431   -2.8622 H         1 <0>         0.0000
     38 H16         0.8573   -1.7835   -1.7352 H         1 <0>         0.0000
     39 H17        -0.2373   -3.2755    3.7147 H         1 <0>         0.0000
     40 H18         1.1644   -4.0284    4.5071 H         1 <0>         0.0000
     41 H19         0.2935   -4.9003    3.2271 H         1 <0>         0.0000
     42 H20         7.1160   -4.7876    1.6607 H         1 <0>         0.0000
     43 H21         5.6310   -4.8442    0.7228 H         1 <0>         0.0000
     44 H22         4.6761   -3.6079    3.2888 H         1 <0>         0.0000
     45 H23         6.3842   -3.9541    3.5861 H         1 <0>         0.0000
     46 H24         6.7931   -2.1847    1.6686 H         1 <0>         0.0000
     47 H25         2.3043   -1.8161    0.4837 H         1 <0>         0.0000
     48 H26         6.6656   -3.4052   -1.0405 H         1 <0>         0.0000
     49 H27         2.2391   -2.6962    2.8684 H         1 <0>         0.0000
     50 H28         3.8157   -4.1378    1.3829 H         1 <0>         0.0000
@<TRIPOS>BOND
     1    1   18 am
     2    1   20 2
     3    2   12 1
     4    2   17 am
     5    2   21 2
     6    3   13 1
     7    3   16 am
     8    3   22 2
     9    4   14 1
    10    5   14 1
    11    6   15 1
    12    7   15 1
    13    8   15 1
    14    9   16 1
    15   10   12 1
    16   10   14 1
    17   11   12 1
    18   11   18 1
    19   13   15 1
    20   13   17 1
    21   18   19 1
    22    1   23 1
    23    4   24 1
    24    4   25 1
    25    4   26 1
    26    5   27 1
    27    5   28 1
    28    5   29 1
    29    6   30 1
    30    6   31 1
    31    6   32 1
    32    7   33 1
    33    7   34 1
    34    7   35 1
    35    8   36 1
    36    8   37 1
    37    8   38 1
    38    9   39 1
    39    9   40 1
    40    9   41 1
    41   10   42 1
    42   10   43 1
    43   11   44 1
    44   11   45 1
    45   12   46 1
    46   13   47 1
    47   14   48 1
    48   16   49 1
    49   17   50 1
@<TRIPOS>MOLECULE
LIGAND
   50    49     0     0     0
SMALL
NO_CHARGES

@<TRIPOS>ATOM
      1 C1          7.5514   -0.8712   -0.5136 C.2       1 <0>         0.0000
      2 C2          4.7609   -2.3304    1.0158 C.2       1 <0>         0.0000
      3 C3          1.4114   -2.9063    1.5049 C.2       1 <0>         0.0000
      4 C4          4.8998   -3.3220    4.5808 C.3       1 <0>         0.0000
      5 C5          5.9126   -1.1117    5.1647 C.3       1 <0>         0.0000
      6 C6          3.1857   -3.8003   -1.8813 C.3       1 <0>         0.0000
      7 C7          1.9543   -5.3076   -0.3278 C.3       1 <0>         0.0000
      8 C8          0.7370   -3.4626   -1.4991 C.3       1 <0>         0.0000
      9 C9         -0.0359   -1.4126    2.8483 C.3       1 <0>         0.0000
     10 C10         6.4405   -2.1272    2.9267 C.3       1 <0>         0.0000
     11 C11         7.1342   -3.0688    0.6654 C.3       1 <0>         0.0000
     12 C12         5.9953   -2.9363    1.6910 C.3       1 <0>         0.0000
     13 C13         2.4245   -2.8999    0.3599 C.3       1 <0>         0.0000
     14 C14         5.3645   -1.9750    4.0244 C.3       1 <0>         0.0000
     15 C15         2.0646   -3.8508   -0.8201 C.3       1 <0>         0.0000
     16 N1          0.9155   -1.6421    1.7876 N.am      1 <0>         0.0000
     17 N2          3.6959   -3.2182    0.9688 N.am      1 <0>         0.0000
     18 N3          7.8323   -1.8342    0.4261 N.am      1 <0>         0.0000
     19 O1          8.9139   -1.6145    1.2565 O.3       1 <0>         0.0000
     20 O2          6.6351   -0.8986   -1.3299 O.2       1 <0>         0.0000
     21 O3          4.7482   -1.1914    0.5542 O.2       1 <0>         0.0000
     22 O4          1.0981   -3.9285    2.1133 O.2       1 <0>         0.0000
     23 H1          8.2468   -0.0137   -0.4877 H         1 <0>         0.0000
     24 H2          5.7423   -3.8772    5.0075 H         1 <0>         0.0000
     25 H3          4.4501   -3.9417    3.7978 H         1 <0>         0.0000
     26 H4          4.1642   -3.1925    5.3800 H         1 <0>         0.0000
     27 H5          6.7922   -1.5734    5.6261 H         1 <0>         0.0000
     28 H6          6.2016   -0.1209    4.7985 H         1 <0>         0.0000
     29 H7          5.1564   -0.9697    5.9440 H         1 <0>         0.0000
     30 H8          3.3133   -2.7845   -2.2720 H         1 <0>         0.0000
     31 H9          2.9723   -4.4622   -2.7277 H         1 <0>         0.0000
     32 H10         4.1465   -4.1154   -1.4578 H         1 <0>         0.0000
     33 H11         1.1705   -5.4095    0.4319 H         1 <0>         0.0000
     34 H12         2.8879   -5.6535    0.1281 H         1 <0>         0.0000
     35 H13         1.7055   -5.9859   -1.1517 H         1 <0>         0.0000
     36 H14        -0.0909   -3.4848   -0.7807 H         1 <0>         0.0000
     37 H15         0.4812   -4.1517   -2.3109 H         1 <0>         0.0000
     38 H16         0.7762   -2.4505   -1.9146 H         1 <0>         0.0000
     39 H17        -1.0554   -1.5084    2.4658 H         1 <0>         0.0000
     40 H18         0.0924   -0.4080    3.2604 H         1 <0>         0.0000
     41 H19         0.1090   -2.1415    3.6503 H         1 <0>         0.0000
     42 H20         7.3251   -2.6069    3.3666 H         1 <0>         0.0000
     43 H21         6.7588   -1.1249    2.6110 H         1 <0>         0.0000
     44 H22         7.8751   -3.7989    1.0081 H         1 <0>         0.0000
     45 H23         6.7546   -3.4103   -0.3032 H         1 <0>         0.0000
     46 H24         5.7385   -3.9535    2.0094 H         1 <0>         0.0000
     47 H25         2.5279   -1.8729   -0.0129 H         1 <0>         0.0000
     48 H26         4.4913   -1.4577    3.6101 H         1 <0>         0.0000
     49 H27         1.2316   -0.8537    1.2310 H         1 <0>         0.0000
     50 H28         3.8157   -4.1378    1.3829 H         1 <0>         0.0000
@<TRIPOS>BOND
     1    1   18 am
     2    1   20 2
     3    2   12 1
     4    2   17 am
     5    2   21 2
     6    3   13 1
     7    3   16 am
     8    3   22 2
     9    4   14 1
    10    5   14 1
    11    6   15 1
    12    7   15 1
    13    8   15 1
    14    9   16 1
    15   10   12 1
    16   10   14 1
    17   11   12 1
    18   11   18 1
    19   13   15 1
    20   13   17 1
    21   18   19 1
    22    1   23 1
    23    4   24 1
    24    4   25 1
    25    4   26 1
    26    5   27 1
    27    5   28 1
    28    5   29 1
    29    6   30 1
    30    6   31 1
    31    6   32 1
    32    7   33 1
    33    7   34 1
    34    7   35 1
    35    8   36 1
    36    8   37 1
    37    8   38 1
    38    9   39 1
    39    9   40 1
    40    9   41 1
    41   10   42 1
    42   10   43 1
    43   11   44 1
    44   11   45 1
    45   12   46 1
    46   13   47 1
    47   14   48 1
    48   16   49 1
    49   17   50 1
@<TRIPOS>MOLECULE
LIGAND
   50    49     0     0     0
SMALL
NO_CHARGES

@<TRIPOS>ATOM
      1 C1          8.7185   -5.1949    0.9438 C.2       1 <0>         0.0000
      2 C2          4.7609   -2.3304    1.0158 C.2       1 <0>         0.0000
      3 C3          1.6238   -2.1763    1.4428 C.2       1 <0>         0.0000
      4 C4          7.0285   -1.4411    4.2202 C.3       1 <0>         0.0000
      5 C5          8.3048    0.0740    2.6945 C.3       1 <0>         0.0000
      6 C6          2.6382   -4.8237   -1.2732 C.3       1 <0>         0.0000
      7 C7          1.4139   -5.1834    0.8654 C.3       1 <0>         0.0000
      8 C8          0.3871   -3.7862   -0.9377 C.3       1 <0>         0.0000
      9 C9          1.1427   -2.2044    3.8715 C.3       1 <0>         0.0000
     10 C10         7.1850   -1.9548    1.7203 C.3       1 <0>         0.0000
     11 C11         6.3716   -4.2554    0.9948 C.3       1 <0>         0.0000
     12 C12         5.9953   -2.9363    1.6910 C.3       1 <0>         0.0000
     13 C13         2.4245   -2.8999    0.3599 C.3       1 <0>         0.0000
     14 C14         7.0962   -0.8603    2.8067 C.3       1 <0>         0.0000
     15 C15         1.7114   -4.1488   -0.2382 C.3       1 <0>         0.0000
     16 N1          1.8198   -2.7177    2.7048 N.am      1 <0>         0.0000
     17 N2          3.6959   -3.2182    0.9688 N.am      1 <0>         0.0000
     18 N3          7.5302   -4.8900    1.5637 N.am      1 <0>         0.0000
     19 O1          7.4064   -5.2237    2.8983 O.3       1 <0>         0.0000
     20 O2          9.0034   -4.9733   -0.2294 O.2       1 <0>         0.0000
     21 O3          4.7482   -1.1914    0.5542 O.2       1 <0>         0.0000
     22 O4          0.8744   -1.2316    1.1999 O.2       1 <0>         0.0000
     23 H1          9.4507   -5.6841    1.6104 H         1 <0>         0.0000
     24 H2          7.9109   -2.0554    4.4301 H         1 <0>         0.0000
     25 H3          6.1416   -2.0705    4.3492 H         1 <0>         0.0000
     26 H4          7.0010   -0.6512    4.9764 H         1 <0>         0.0000
     27 H5          9.2434   -0.4691    2.8487 H         1 <0>         0.0000
     28 H6          8.3428    0.5443    1.7062 H         1 <0>         0.0000
     29 H7          8.2495    0.8738    3.4405 H         1 <0>         0.0000
     30 H8          2.8872   -4.1345   -2.0879 H         1 <0>         0.0000
     31 H9          2.1738   -5.7124   -1.7140 H         1 <0>         0.0000
     32 H10         3.5794   -5.1449   -0.8119 H         1 <0>         0.0000
     33 H11         0.7565   -4.7621    1.6349 H         1 <0>         0.0000
     34 H12         2.3282   -5.5113    1.3711 H         1 <0>         0.0000
     35 H13         0.9158   -6.0685    0.4541 H         1 <0>         0.0000
     36 H14        -0.3050   -3.3025   -0.2384 H         1 <0>         0.0000
     37 H15        -0.1179   -4.6740   -1.3329 H         1 <0>         0.0000
     38 H16         0.5457   -3.0900   -1.7676 H         1 <0>         0.0000
     39 H17         1.7401   -1.4157    4.3360 H         1 <0>         0.0000
     40 H18         0.9874   -3.0042    4.6007 H         1 <0>         0.0000
     41 H19         0.1698   -1.7909    3.5925 H         1 <0>         0.0000
     42 H20         8.1124   -2.5237    1.8705 H         1 <0>         0.0000
     43 H21         7.2788   -1.4660    0.7417 H         1 <0>         0.0000
     44 H22         5.5455   -4.9716    1.0590 H         1 <0>         0.0000
     45 H23         6.5888   -4.0932   -0.0661 H         1 <0>         0.0000
     46 H24         5.7229   -3.1911    2.7220 H         1 <0>         0.0000
     47 H25         2.6549   -2.1876   -0.4426 H         1 <0>         0.0000
     48 H26         6.1964   -0.2560    2.6429 H         1 <0>         0.0000
     49 H27         2.4595   -3.4993    2.8111 H         1 <0>         0.0000
     50 H28         3.8157   -4.1378    1.3829 H         1 <0>         0.0000
@<TRIPOS>BOND
     1    1   18 am
     2    1   20 2
     3    2   12 1
     4    2   17 am
     5    2   21 2
     6    3   13 1
     7    3   16 am
     8    3   22 2
     9    4   14 1
    10    5   14 1
    11    6   15 1
    12    7   15 1
    13    8   15 1
    14    9   16 1
    15   10   12 1
    16   10   14 1
    17   11   12 1
    18   11   18 1
    19   13   15 1
    20   13   17 1
    21   18   19 1
    22    1   23 1
    23    4   24 1
    24    4   25 1
    25    4   26 1
    26    5   27 1
    27    5   28 1
    28    5   29 1
    29    6   30 1
    30    6   31 1
    31    6   32 1
    32    7   33 1
    33    7   34 1
    34    7   35 1
    35    8   36 1
    36    8   37 1
    37    8   38 1
    38    9   39 1
    39    9   40 1
    40    9   41 1
    41   10   42 1
    42   10   43 1
    43   11   44 1
    44   11   45 1
    45   12   46 1
    46   13   47 1
    47   14   48 1
    48   16   49 1
    49   17   50 1
@<TRIPOS>MOLECULE
LIGAND
   50    49     0     0     0
SMALL
NO_CHARGES

@<TRIPOS>ATOM
      1 C1          6.4496   -5.2442   -0.4265 C.2       1 <0>         0.0000
      2 C2          4.7609   -2.3304    1.0158 C.2       1 <0>         0.0000
      3 C3          1.3743   -3.6105    1.2141 C.2       1 <0>         0.0000
      4 C4          4.8998   -3.3220    4.5808 C.3       1 <0>         0.0000
      5 C5          5.9126   -1.1117    5.1647 C.3       1 <0>         0.0000
      6 C6          3.5112   -2.5312   -1.8976 C.3       1 <0>         0.0000
      7 C7          2.5798   -4.7765   -1.3563 C.3       1 <0>         0.0000
      8 C8          1.0336   -2.8618   -1.8044 C.3       1 <0>         0.0000
      9 C9         -0.8899   -3.3247    2.1744 C.3       1 <0>         0.0000
     10 C10         6.4405   -2.1272    2.9267 C.3       1 <0>         0.0000
     11 C11         7.1342   -3.0688    0.6654 C.3       1 <0>         0.0000
     12 C12         5.9953   -2.9363    1.6910 C.3       1 <0>         0.0000
     13 C13         2.4245   -2.8999    0.3599 C.3       1 <0>         0.0000
     14 C14         5.3645   -1.9750    4.0244 C.3       1 <0>         0.0000
     15 C15         2.3718   -3.2623   -1.1540 C.3       1 <0>         0.0000
     16 N1          0.2223   -2.8565    1.3827 N.am      1 <0>         0.0000
     17 N2          3.6959   -3.2182    0.9688 N.am      1 <0>         0.0000
     18 N3          6.8025   -3.9159   -0.4486 N.am      1 <0>         0.0000
     19 O1          6.8526   -3.2928   -1.6802 O.3       1 <0>         0.0000
     20 O2          6.1721   -5.9382   -1.4001 O.2       1 <0>         0.0000
     21 O3          4.7482   -1.1914    0.5542 O.2       1 <0>         0.0000
     22 O4          1.5569   -4.7218    1.7089 O.2       1 <0>         0.0000
     23 H1          6.4298   -5.6783    0.5888 H         1 <0>         0.0000
     24 H2          5.7423   -3.8772    5.0075 H         1 <0>         0.0000
     25 H3          4.4501   -3.9417    3.7978 H         1 <0>         0.0000
     26 H4          4.1642   -3.1925    5.3800 H         1 <0>         0.0000
     27 H5          6.7922   -1.5734    5.6261 H         1 <0>         0.0000
     28 H6          6.2016   -0.1209    4.7985 H         1 <0>         0.0000
     29 H7          5.1564   -0.9697    5.9440 H         1 <0>         0.0000
     30 H8          3.4182   -1.4447   -1.7906 H         1 <0>         0.0000
     31 H9          3.5120   -2.7653   -2.9677 H         1 <0>         0.0000
     32 H10         4.4918   -2.8203   -1.5020 H         1 <0>         0.0000
     33 H11         1.7979   -5.3538   -0.8491 H         1 <0>         0.0000
     34 H12         3.5395   -5.1121   -0.9494 H         1 <0>         0.0000
     35 H13         2.5489   -5.0416   -2.4191 H         1 <0>         0.0000
     36 H14         0.1926   -3.3589   -1.3070 H         1 <0>         0.0000
     37 H15         0.9978   -3.1431   -2.8622 H         1 <0>         0.0000
     38 H16         0.8573   -1.7835   -1.7352 H         1 <0>         0.0000
     39 H17        -1.5882   -3.8849    1.5471 H         1 <0>         0.0000
     40 H18        -1.4189   -2.4783    2.6208 H         1 <0>         0.0000
     41 H19        -0.5348   -3.9781    2.9759 H         1 <0>         0.0000
     42 H20         7.3251   -2.6069    3.3666 H         1 <0>         0.0000
     43 H21         6.7588   -1.1249    2.6110 H         1 <0>         0.0000
     44 H22         7.3992   -2.0872    0.2584 H         1 <0>         0.0000
     45 H23         8.0331   -3.4907    1.1269 H         1 <0>         0.0000
     46 H24         5.7385   -3.9535    2.0094 H         1 <0>         0.0000
     47 H25         2.3043   -1.8161    0.4837 H         1 <0>         0.0000
     48 H26         4.4913   -1.4577    3.6101 H         1 <0>         0.0000
     49 H27         0.1595   -1.9470    0.9352 H         1 <0>         0.0000
     50 H28         3.8157   -4.1378    1.3829 H         1 <0>         0.0000
@<TRIPOS>BOND
     1    1   18 am
     2    1   20 2
     3    2   12 1
     4    2   17 am
     5    2   21 2
     6    3   13 1
     7    3   16 am
     8    3   22 2
     9    4   14 1
    10    5   14 1
    11    6   15 1
    12    7   15 1
    13    8   15 1
    14    9   16 1
    15   10   12 1
    16   10   14 1
    17   11   12 1
    18   11   18 1
    19   13   15 1
    20   13   17 1
    21   18   19 1
    22    1   23 1
    23    4   24 1
    24    4   25 1
    25    4   26 1
    26    5   27 1
    27    5   28 1
    28    5   29 1
    29    6   30 1
    30    6   31 1
    31    6   32 1
    32    7   33 1
    33    7   34 1
    34    7   35 1
    35    8   36 1
    36    8   37 1
    37    8   38 1
    38    9   39 1
    39    9   40 1
    40    9   41 1
    41   10   42 1
    42   10   43 1
    43   11   44 1
    44   11   45 1
    45   12   46 1
    46   13   47 1
    47   14   48 1
    48   16   49 1
    49   17   50 1
@<TRIPOS>MOLECULE
LIGAND
   50    49     0     0     0
SMALL
NO_CHARGES

@<TRIPOS>ATOM
      1 C1          8.3562   -4.2249   -0.3854 C.2       1 <0>         0.0000
      2 C2          4.7609   -2.3304    1.0158 C.2       1 <0>         0.0000
      3 C3          1.6238   -2.1763    1.4428 C.2       1 <0>         0.0000
      4 C4          5.4286   -5.0551    3.9022 C.3       1 <0>         0.0000
      5 C5          5.1681   -3.1669    5.5205 C.3       1 <0>         0.0000
      6 C6          2.6382   -4.8237   -1.2732 C.3       1 <0>         0.0000
      7 C7          1.4139   -5.1834    0.8654 C.3       1 <0>         0.0000
      8 C8          0.3871   -3.7862   -0.9377 C.3       1 <0>         0.0000
      9 C9          1.1427   -2.2044    3.8715 C.3       1 <0>         0.0000
     10 C10         6.0212   -2.6662    3.2096 C.3       1 <0>         0.0000
     11 C11         7.2695   -2.4142    1.0053 C.3       1 <0>         0.0000
     12 C12         5.9953   -2.9363    1.6910 C.3       1 <0>         0.0000
     13 C13         2.4245   -2.8999    0.3599 C.3       1 <0>         0.0000
     14 C14         5.0884   -3.5706    4.0452 C.3       1 <0>         0.0000
     15 C15         1.7114   -4.1488   -0.2382 C.3       1 <0>         0.0000
     16 N1          1.8198   -2.7177    2.7048 N.am      1 <0>         0.0000
     17 N2          3.6959   -3.2182    0.9688 N.am      1 <0>         0.0000
     18 N3          7.5808   -3.1022   -0.2189 N.am      1 <0>         0.0000
     19 O1          7.0189   -2.5452   -1.3509 O.3       1 <0>         0.0000
     20 O2          8.9304   -4.8491    0.5019 O.2       1 <0>         0.0000
     21 O3          4.7482   -1.1914    0.5542 O.2       1 <0>         0.0000
     22 O4          0.8744   -1.2316    1.1999 O.2       1 <0>         0.0000
     23 H1          8.4365   -4.5533   -1.4368 H         1 <0>         0.0000
     24 H2          6.4596   -5.2491    4.2175 H         1 <0>         0.0000
     25 H3          5.3256   -5.3883    2.8641 H         1 <0>         0.0000
     26 H4          4.7804   -5.6761    4.5273 H         1 <0>         0.0000
     27 H5          6.1838   -3.2884    5.9121 H         1 <0>         0.0000
     28 H6          4.8754   -2.1200    5.6540 H         1 <0>         0.0000
     29 H7          4.4947   -3.7797    6.1290 H         1 <0>         0.0000
     30 H8          2.8872   -4.1345   -2.0879 H         1 <0>         0.0000
     31 H9          2.1738   -5.7124   -1.7140 H         1 <0>         0.0000
     32 H10         3.5794   -5.1449   -0.8119 H         1 <0>         0.0000
     33 H11         0.7565   -4.7621    1.6349 H         1 <0>         0.0000
     34 H12         2.3282   -5.5113    1.3711 H         1 <0>         0.0000
     35 H13         0.9158   -6.0685    0.4541 H         1 <0>         0.0000
     36 H14        -0.3050   -3.3025   -0.2384 H         1 <0>         0.0000
     37 H15        -0.1179   -4.6740   -1.3329 H         1 <0>         0.0000
     38 H16         0.5457   -3.0900   -1.7676 H         1 <0>         0.0000
     39 H17         1.7401   -1.4157    4.3360 H         1 <0>         0.0000
     40 H18         0.9874   -3.0042    4.6007 H         1 <0>         0.0000
     41 H19         0.1698   -1.7909    3.5925 H         1 <0>         0.0000
     42 H20         7.0493   -2.7891    3.5757 H         1 <0>         0.0000
     43 H21         5.7503   -1.6191    3.3985 H         1 <0>         0.0000
     44 H22         7.1657   -1.3514    0.7623 H         1 <0>         0.0000
     45 H23         8.1413   -2.5219    1.6590 H         1 <0>         0.0000
     46 H24         5.9704   -4.0198    1.5260 H         1 <0>         0.0000
     47 H25         2.6549   -2.1876   -0.4426 H         1 <0>         0.0000
     48 H26         4.0519   -3.4254    3.7195 H         1 <0>         0.0000
     49 H27         2.4595   -3.4993    2.8111 H         1 <0>         0.0000
     50 H28         3.8157   -4.1378    1.3829 H         1 <0>         0.0000
@<TRIPOS>BOND
     1    1   18 am
     2    1   20 2
     3    2   12 1
     4    2   17 am
     5    2   21 2
     6    3   13 1
     7    3   16 am
     8    3   22 2
     9    4   14 1
    10    5   14 1
    11    6   15 1
    12    7   15 1
    13    8   15 1
    14    9   16 1
    15   10   12 1
    16   10   14 1
    17   11   12 1
    18   11   18 1
    19   13   15 1
    20   13   17 1
    21   18   19 1
    22    1   23 1
    23    4   24 1
    24    4   25 1
    25    4   26 1
    26    5   27 1
    27    5   28 1
    28    5   29 1
    29    6   30 1
    30    6   31 1
    31    6   32 1
    32    7   33 1
    33    7   34 1
    34    7   35 1
    35    8   36 1
    36    8   37 1
    37    8   38 1
    38    9   39 1
    39    9   40 1
    40    9   41 1
    41   10   42 1
    42   10   43 1
    43   11   44 1
    44   11   45 1
    45   12   46 1
    46   13   47 1
    47   14   48 1
    48   16   49 1
    49   17   50 1
@<TRIPOS>MOLECULE
LIGAND
   50    49     0     0     0
SMALL
NO_CHARGES

@<TRIPOS>ATOM
      1 C1          6.6898   -3.3970   -1.3622 C.2       1 <0>         0.0000
      2 C2          4.7609   -2.3304    1.0158 C.2       1 <0>         0.0000
      3 C3          1.6238   -2.1763    1.4428 C.2       1 <0>         0.0000
      4 C4          7.0285   -1.4411    4.2202 C.3       1 <0>         0.0000
      5 C5          8.3048    0.0740    2.6945 C.3       1 <0>         0.0000
      6 C6          2.6382   -4.8237   -1.2732 C.3       1 <0>         0.0000
      7 C7          1.4139   -5.1834    0.8654 C.3       1 <0>         0.0000
      8 C8          0.3871   -3.7862   -0.9377 C.3       1 <0>         0.0000
      9 C9          0.0532   -0.2939    1.7895 C.3       1 <0>         0.0000
     10 C10         7.1850   -1.9548    1.7203 C.3       1 <0>         0.0000
     11 C11         6.3716   -4.2554    0.9948 C.3       1 <0>         0.0000
     12 C12         5.9953   -2.9363    1.6910 C.3       1 <0>         0.0000
     13 C13         2.4245   -2.8999    0.3599 C.3       1 <0>         0.0000
     14 C14         7.0962   -0.8603    2.8067 C.3       1 <0>         0.0000
     15 C15         1.7114   -4.1488   -0.2382 C.3       1 <0>         0.0000
     16 N1          0.8675   -1.1285    0.9389 N.am      1 <0>         0.0000
     17 N2          3.6959   -3.2182    0.9688 N.am      1 <0>         0.0000
     18 N3          7.0973   -4.0655   -0.2324 N.am      1 <0>         0.0000
     19 O1          8.3555   -4.6352   -0.2508 O.3       1 <0>         0.0000
     20 O2          7.3377   -3.2543   -2.3949 O.2       1 <0>         0.0000
     21 O3          4.7482   -1.1914    0.5542 O.2       1 <0>         0.0000
     22 O4          1.6741   -2.4892    2.6314 O.2       1 <0>         0.0000
     23 H1          5.6759   -2.9675   -1.2787 H         1 <0>         0.0000
     24 H2          7.9109   -2.0554    4.4301 H         1 <0>         0.0000
     25 H3          6.1416   -2.0705    4.3492 H         1 <0>         0.0000
     26 H4          7.0010   -0.6512    4.9764 H         1 <0>         0.0000
     27 H5          9.2434   -0.4691    2.8487 H         1 <0>         0.0000
     28 H6          8.3428    0.5443    1.7062 H         1 <0>         0.0000
     29 H7          8.2495    0.8738    3.4405 H         1 <0>         0.0000
     30 H8          2.8872   -4.1345   -2.0879 H         1 <0>         0.0000
     31 H9          2.1738   -5.7124   -1.7140 H         1 <0>         0.0000
     32 H10         3.5794   -5.1449   -0.8119 H         1 <0>         0.0000
     33 H11         0.7565   -4.7621    1.6349 H         1 <0>         0.0000
     34 H12         2.3282   -5.5113    1.3711 H         1 <0>         0.0000
     35 H13         0.9158   -6.0685    0.4541 H         1 <0>         0.0000
     36 H14        -0.3050   -3.3025   -0.2384 H         1 <0>         0.0000
     37 H15        -0.1179   -4.6740   -1.3329 H         1 <0>         0.0000
     38 H16         0.5457   -3.0900   -1.7676 H         1 <0>         0.0000
     39 H17        -0.9522   -0.7139    1.8767 H         1 <0>         0.0000
     40 H18        -0.0213    0.7135    1.3710 H         1 <0>         0.0000
     41 H19         0.4945   -0.2269    2.7876 H         1 <0>         0.0000
     42 H20         8.1124   -2.5237    1.8705 H         1 <0>         0.0000
     43 H21         7.2788   -1.4660    0.7417 H         1 <0>         0.0000
     44 H22         6.9984   -4.8692    1.6503 H         1 <0>         0.0000
     45 H23         5.4788   -4.8390    0.7471 H         1 <0>         0.0000
     46 H24         5.7229   -3.1911    2.7220 H         1 <0>         0.0000
     47 H25         2.6549   -2.1876   -0.4426 H         1 <0>         0.0000
     48 H26         6.1964   -0.2560    2.6429 H         1 <0>         0.0000
     49 H27         0.8872   -0.9429   -0.0594 H         1 <0>         0.0000
     50 H28         3.8157   -4.1378    1.3829 H         1 <0>         0.0000
@<TRIPOS>BOND
     1    1   18 am
     2    1   20 2
     3    2   12 1
     4    2   17 am
     5    2   21 2
     6    3   13 1
     7    3   16 am
     8    3   22 2
     9    4   14 1
    10    5   14 1
    11    6   15 1
    12    7   15 1
    13    8   15 1
    14    9   16 1
    15   10   12 1
    16   10   14 1
    17   11   12 1
    18   11   18 1
    19   13   15 1
    20   13   17 1
    21   18   19 1
    22    1   23 1
    23    4   24 1
    24    4   25 1
    25    4   26 1
    26    5   27 1
    27    5   28 1
    28    5   29 1
    29    6   30 1
    30    6   31 1
    31    6   32 1
    32    7   33 1
    33    7   34 1
    34    7   35 1
    35    8   36 1
    36    8   37 1
    37    8   38 1
    38    9   39 1
    39    9   40 1
    40    9   41 1
    41   10   42 1
    42   10   43 1
    43   11   44 1
    44   11   45 1
    45   12   46 1
    46   13   47 1
    47   14   48 1
    48   16   49 1
    49   17   50 1
@<TRIPOS>MOLECULE
LIGAND
   50    49     0     0     0
SMALL
NO_CHARGES

@<TRIPOS>ATOM
      1 C1          9.3378   -3.1321    2.2703 C.2       1 <0>         0.0000
      2 C2          4.7609   -2.3304    1.0158 C.2       1 <0>         0.0000
      3 C3          1.6238   -2.1763    1.4428 C.2       1 <0>         0.0000
      4 C4          4.6188   -4.7049    3.8537 C.3       1 <0>         0.0000
      5 C5          4.9148   -2.8132    5.4620 C.3       1 <0>         0.0000
      6 C6          2.6382   -4.8237   -1.2732 C.3       1 <0>         0.0000
      7 C7          1.4139   -5.1834    0.8654 C.3       1 <0>         0.0000
      8 C8          0.3871   -3.7862   -0.9377 C.3       1 <0>         0.0000
      9 C9          0.7109    0.0436    2.0502 C.3       1 <0>         0.0000
     10 C10         6.0212   -2.6662    3.2096 C.3       1 <0>         0.0000
     11 C11         7.2695   -2.4142    1.0053 C.3       1 <0>         0.0000
     12 C12         5.9953   -2.9363    1.6910 C.3       1 <0>         0.0000
     13 C13         2.4245   -2.8999    0.3599 C.3       1 <0>         0.0000
     14 C14         4.7908   -3.1904    3.9826 C.3       1 <0>         0.0000
     15 C15         1.7114   -4.1488   -0.2382 C.3       1 <0>         0.0000
     16 N1          1.4216   -0.8351    1.1525 N.am      1 <0>         0.0000
     17 N2          3.6959   -3.2182    0.9688 N.am      1 <0>         0.0000
     18 N3          8.4249   -3.2358    1.2479 N.am      1 <0>         0.0000
     19 O1          8.6173   -4.2452    0.3251 O.3       1 <0>         0.0000
     20 O2         10.3153   -3.8531    2.4470 O.2       1 <0>         0.0000
     21 O3          4.7482   -1.1914    0.5542 O.2       1 <0>         0.0000
     22 O4          1.2284   -2.7340    2.4655 O.2       1 <0>         0.0000
     23 H1          9.1239   -2.3049    2.9702 H         1 <0>         0.0000
     24 H2          5.5037   -5.2294    4.2303 H         1 <0>         0.0000
     25 H3          4.4709   -5.0006    2.8097 H         1 <0>         0.0000
     26 H4          3.7637   -5.0613    4.4353 H         1 <0>         0.0000
     27 H5          5.8053   -3.2631    5.9141 H         1 <0>         0.0000
     28 H6          4.9845   -1.7270    5.5823 H         1 <0>         0.0000
     29 H7          4.0398   -3.1538    6.0255 H         1 <0>         0.0000
     30 H8          2.8872   -4.1345   -2.0879 H         1 <0>         0.0000
     31 H9          2.1738   -5.7124   -1.7140 H         1 <0>         0.0000
     32 H10         3.5794   -5.1449   -0.8119 H         1 <0>         0.0000
     33 H11         0.7565   -4.7621    1.6349 H         1 <0>         0.0000
     34 H12         2.3282   -5.5113    1.3711 H         1 <0>         0.0000
     35 H13         0.9158   -6.0685    0.4541 H         1 <0>         0.0000
     36 H14        -0.3050   -3.3025   -0.2384 H         1 <0>         0.0000
     37 H15        -0.1179   -4.6740   -1.3329 H         1 <0>         0.0000
     38 H16         0.5457   -3.0900   -1.7676 H         1 <0>         0.0000
     39 H17        -0.3565    0.0379    1.8148 H         1 <0>         0.0000
     40 H18         1.0868    1.0659    1.9547 H         1 <0>         0.0000
     41 H19         0.8449   -0.2838    3.0846 H         1 <0>         0.0000
     42 H20         6.9244   -3.1220    3.6370 H         1 <0>         0.0000
     43 H21         6.1083   -1.5861    3.3865 H         1 <0>         0.0000
     44 H22         7.1283   -2.3661   -0.0797 H         1 <0>         0.0000
     45 H23         7.5195   -1.4064    1.3527 H         1 <0>         0.0000
     46 H24         5.9704   -4.0198    1.5260 H         1 <0>         0.0000
     47 H25         2.6549   -2.1876   -0.4426 H         1 <0>         0.0000
     48 H26         3.8848   -2.7101    3.5951 H         1 <0>         0.0000
     49 H27         1.7849   -0.4599    0.2815 H         1 <0>         0.0000
     50 H28         3.8157   -4.1378    1.3829 H         1 <0>         0.0000
@<TRIPOS>BOND
     1    1   18 am
     2    1   20 2
     3    2   12 1
     4    2   17 am
     5    2   21 2
     6    3   13 1
     7    3   16 am
     8    3   22 2
     9    4   14 1
    10    5   14 1
    11    6   15 1
    12    7   15 1
    13    8   15 1
    14    9   16 1
    15   10   12 1
    16   10   14 1
    17   11   12 1
    18   11   18 1
    19   13   15 1
    20   13   17 1
    21   18   19 1
    22    1   23 1
    23    4   24 1
    24    4   25 1
    25    4   26 1
    26    5   27 1
    27    5   28 1
    28    5   29 1
    29    6   30 1
    30    6   31 1
    31    6   32 1
    32    7   33 1
    33    7   34 1
    34    7   35 1
    35    8   36 1
    36    8   37 1
    37    8   38 1
    38    9   39 1
    39    9   40 1
    40    9   41 1
    41   10   42 1
    42   10   43 1
    43   11   44 1
    44   11   45 1
    45   12   46 1
    46   13   47 1
    47   14   48 1
    48   16   49 1
    49   17   50 1
@<TRIPOS>MOLECULE
LIGAND
   50    49     0     0     0
SMALL
NO_CHARGES

@<TRIPOS>ATOM
      1 C1          7.8677   -2.4259    4.1911 C.2       1 <0>         0.0000
      2 C2          4.7609   -2.3304    1.0158 C.2       1 <0>         0.0000
      3 C3          1.4114   -2.9063    1.5049 C.2       1 <0>         0.0000
      4 C4          8.5547   -3.1178   -0.0742 C.3       1 <0>         0.0000
      5 C5          7.6782   -5.2829   -0.9666 C.3       1 <0>         0.0000
      6 C6          3.1857   -3.8003   -1.8813 C.3       1 <0>         0.0000
      7 C7          1.9543   -5.3076   -0.3278 C.3       1 <0>         0.0000
      8 C8          0.7370   -3.4626   -1.4991 C.3       1 <0>         0.0000
      9 C9          1.0123   -1.9958    3.7725 C.3       1 <0>         0.0000
     10 C10         6.4903   -4.2069    0.9698 C.3       1 <0>         0.0000
     11 C11         5.6912   -3.2135    3.1734 C.3       1 <0>         0.0000
     12 C12         5.9953   -2.9363    1.6910 C.3       1 <0>         0.0000
     13 C13         2.4245   -2.8999    0.3599 C.3       1 <0>         0.0000
     14 C14         7.2936   -3.9469   -0.3237 C.3       1 <0>         0.0000
     15 C15         2.0646   -3.8508   -0.8201 C.3       1 <0>         0.0000
     16 N1          1.8071   -2.1159    2.5738 N.am      1 <0>         0.0000
     17 N2          3.6959   -3.2182    0.9688 N.am      1 <0>         0.0000
     18 N3          6.8729   -3.3510    3.9817 N.am      1 <0>         0.0000
     19 O1          6.9987   -4.5727    4.6137 O.3       1 <0>         0.0000
     20 O2          7.9211   -1.2964    3.7137 O.2       1 <0>         0.0000
     21 O3          4.7482   -1.1914    0.5542 O.2       1 <0>         0.0000
     22 O4          0.3728   -3.5647    1.4736 O.2       1 <0>         0.0000
     23 H1          8.6698   -2.7848    4.8601 H         1 <0>         0.0000
     24 H2          9.2158   -3.6219    0.6392 H         1 <0>         0.0000
     25 H3          8.3079   -2.1320    0.3339 H         1 <0>         0.0000
     26 H4          9.1275   -2.9738   -0.9949 H         1 <0>         0.0000
     27 H5          8.3104   -5.8785   -0.2992 H         1 <0>         0.0000
     28 H6          6.7859   -5.8716   -1.2045 H         1 <0>         0.0000
     29 H7          8.2280   -5.1221   -1.9000 H         1 <0>         0.0000
     30 H8          3.3133   -2.7845   -2.2720 H         1 <0>         0.0000
     31 H9          2.9723   -4.4622   -2.7277 H         1 <0>         0.0000
     32 H10         4.1465   -4.1154   -1.4578 H         1 <0>         0.0000
     33 H11         1.1705   -5.4095    0.4319 H         1 <0>         0.0000
     34 H12         2.8879   -5.6535    0.1281 H         1 <0>         0.0000
     35 H13         1.7055   -5.9859   -1.1517 H         1 <0>         0.0000
     36 H14        -0.0909   -3.4848   -0.7807 H         1 <0>         0.0000
     37 H15         0.4812   -4.1517   -2.3109 H         1 <0>         0.0000
     38 H16         0.7762   -2.4505   -1.9146 H         1 <0>         0.0000
     39 H17         0.3100   -1.1637    3.6759 H         1 <0>         0.0000
     40 H18         1.6568   -1.8137    4.6368 H         1 <0>         0.0000
     41 H19         0.4467   -2.9155    3.9448 H         1 <0>         0.0000
     42 H20         7.1160   -4.7876    1.6607 H         1 <0>         0.0000
     43 H21         5.6310   -4.8442    0.7228 H         1 <0>         0.0000
     44 H22         5.0986   -2.3982    3.6018 H         1 <0>         0.0000
     45 H23         5.1177   -4.1388    3.2917 H         1 <0>         0.0000
     46 H24         6.7931   -2.1847    1.6686 H         1 <0>         0.0000
     47 H25         2.5279   -1.8729   -0.0129 H         1 <0>         0.0000
     48 H26         6.6656   -3.4052   -1.0405 H         1 <0>         0.0000
     49 H27         2.6832   -1.6060    2.5111 H         1 <0>         0.0000
     50 H28         3.8157   -4.1378    1.3829 H         1 <0>         0.0000
@<TRIPOS>BOND
     1    1   18 am
     2    1   20 2
     3    2   12 1
     4    2   17 am
     5    2   21 2
     6    3   13 1
     7    3   16 am
     8    3   22 2
     9    4   14 1
    10    5   14 1
    11    6   15 1
    12    7   15 1
    13    8   15 1
    14    9   16 1
    15   10   12 1
    16   10   14 1
    17   11   12 1
    18   11   18 1
    19   13   15 1
    20   13   17 1
    21   18   19 1
    22    1   23 1
    23    4   24 1
    24    4   25 1
    25    4   26 1
    26    5   27 1
    27    5   28 1
    28    5   29 1
    29    6   30 1
    30    6   31 1
    31    6   32 1
    32    7   33 1
    33    7   34 1
    34    7   35 1
    35    8   36 1
    36    8   37 1
    37    8   38 1
    38    9   39 1
    39    9   40 1
    40    9   41 1
    41   10   42 1
    42   10   43 1
    43   11   44 1
    44   11   45 1
    45   12   46 1
    46   13   47 1
    47   14   48 1
    48   16   49 1
    49   17   50 1
@<TRIPOS>MOLECULE
LIGAND
   50    49     0     0     0
SMALL
NO_CHARGES

@<TRIPOS>ATOM
      1 C1          5.8219   -5.5815   -0.7684 C.2       1 <0>         0.0000
      2 C2          4.7609   -2.3304    1.0158 C.2       1 <0>         0.0000
      3 C3          1.4114   -2.9063    1.5049 C.2       1 <0>         0.0000
      4 C4          5.5916   -1.8934    4.5978 C.3       1 <0>         0.0000
      5 C5          7.0929    0.0222    4.0244 C.3       1 <0>         0.0000
      6 C6          3.1857   -3.8003   -1.8813 C.3       1 <0>         0.0000
      7 C7          1.9543   -5.3076   -0.3278 C.3       1 <0>         0.0000
      8 C8          0.7370   -3.4626   -1.4991 C.3       1 <0>         0.0000
      9 C9         -0.5781   -1.7107    2.3670 C.3       1 <0>         0.0000
     10 C10         6.8665   -1.8668    2.3816 C.3       1 <0>         0.0000
     11 C11         6.8055   -3.7427    0.6616 C.3       1 <0>         0.0000
     12 C12         5.9953   -2.9363    1.6910 C.3       1 <0>         0.0000
     13 C13         2.4245   -2.8999    0.3599 C.3       1 <0>         0.0000
     14 C14         6.1374   -1.0321    3.4575 C.3       1 <0>         0.0000
     15 C15         2.0646   -3.8508   -0.8201 C.3       1 <0>         0.0000
     16 N1          0.4604   -1.9038    1.3835 N.am      1 <0>         0.0000
     17 N2          3.6959   -3.2182    0.9688 N.am      1 <0>         0.0000
     18 N3          6.2725   -5.0565    0.4193 N.am      1 <0>         0.0000
     19 O1          6.2180   -5.8698    1.5343 O.3       1 <0>         0.0000
     20 O2          5.3720   -6.7107   -0.9389 O.2       1 <0>         0.0000
     21 O3          4.7482   -1.1914    0.5542 O.2       1 <0>         0.0000
     22 O4          1.4623   -3.7076    2.4368 O.2       1 <0>         0.0000
     23 H1          5.8940   -4.8782   -1.6168 H         1 <0>         0.0000
     24 H2          6.4006   -2.4456    5.0885 H         1 <0>         0.0000
     25 H3          4.8609   -2.6219    4.2310 H         1 <0>         0.0000
     26 H4          5.1097   -1.2817    5.3659 H         1 <0>         0.0000
     27 H5          7.9623   -0.4436    4.5008 H         1 <0>         0.0000
     28 H6          7.4545    0.6861    3.2321 H         1 <0>         0.0000
     29 H7          6.5886    0.6429    4.7727 H         1 <0>         0.0000
     30 H8          3.3133   -2.7845   -2.2720 H         1 <0>         0.0000
     31 H9          2.9723   -4.4622   -2.7277 H         1 <0>         0.0000
     32 H10         4.1465   -4.1154   -1.4578 H         1 <0>         0.0000
     33 H11         1.1705   -5.4095    0.4319 H         1 <0>         0.0000
     34 H12         2.8879   -5.6535    0.1281 H         1 <0>         0.0000
     35 H13         1.7055   -5.9859   -1.1517 H         1 <0>         0.0000
     36 H14        -0.0909   -3.4848   -0.7807 H         1 <0>         0.0000
     37 H15         0.4812   -4.1517   -2.3109 H         1 <0>         0.0000
     38 H16         0.7762   -2.4505   -1.9146 H         1 <0>         0.0000
     39 H17        -1.4589   -2.3023    2.1044 H         1 <0>         0.0000
     40 H18        -0.8634   -0.6562    2.4133 H         1 <0>         0.0000
     41 H19        -0.2264   -2.0222    3.3542 H         1 <0>         0.0000
     42 H20         7.7322   -2.3581    2.8457 H         1 <0>         0.0000
     43 H21         7.2705   -1.1813    1.6250 H         1 <0>         0.0000
     44 H22         6.8299   -3.2204   -0.3007 H         1 <0>         0.0000
     45 H23         7.8405   -3.8774    0.9927 H         1 <0>         0.0000
     46 H24         5.6479   -3.6501    2.4472 H         1 <0>         0.0000
     47 H25         2.5279   -1.8729   -0.0129 H         1 <0>         0.0000
     48 H26         5.2955   -0.5008    2.9986 H         1 <0>         0.0000
     49 H27         0.4960   -1.2867    0.5777 H         1 <0>         0.0000
     50 H28         3.8157   -4.1378    1.3829 H         1 <0>         0.0000
@<TRIPOS>BOND
     1    1   18 am
     2    1   20 2
     3    2   12 1
     4    2   17 am
     5    2   21 2
     6    3   13 1
     7    3   16 am
     8    3   22 2
     9    4   14 1
    10    5   14 1
    11    6   15 1
    12    7   15 1
    13    8   15 1
    14    9   16 1
    15   10   12 1
    16   10   14 1
    17   11   12 1
    18   11   18 1
    19   13   15 1
    20   13   17 1
    21   18   19 1
    22    1   23 1
    23    4   24 1
    24    4   25 1
    25    4   26 1
    26    5   27 1
    27    5   28 1
    28    5   29 1
    29    6   30 1
    30    6   31 1
    31    6   32 1
    32    7   33 1
    33    7   34 1
    34    7   35 1
    35    8   36 1
    36    8   37 1
    37    8   38 1
    38    9   39 1
    39    9   40 1
    40    9   41 1
    41   10   42 1
    42   10   43 1
    43   11   44 1
    44   11   45 1
    45   12   46 1
    46   13   47 1
    47   14   48 1
    48   16   49 1
    49   17   50 1
@<TRIPOS>MOLECULE
LIGAND
   50    49     0     0     0
SMALL
NO_CHARGES

@<TRIPOS>ATOM
      1 C1          9.2970   -4.1372    0.8354 C.2       1 <0>         0.0000
      2 C2          4.7609   -2.3304    1.0158 C.2       1 <0>         0.0000
      3 C3          1.4114   -2.9063    1.5049 C.2       1 <0>         0.0000
      4 C4          6.2068   -2.5045    4.7682 C.3       1 <0>         0.0000
      5 C5          7.2536   -0.2835    4.2952 C.3       1 <0>         0.0000
      6 C6          3.1857   -3.8003   -1.8813 C.3       1 <0>         0.0000
      7 C7          1.9543   -5.3076   -0.3278 C.3       1 <0>         0.0000
      8 C8          0.7370   -3.4626   -1.4991 C.3       1 <0>         0.0000
      9 C9          0.5462   -1.5170    3.3628 C.3       1 <0>         0.0000
     10 C10         6.8665   -1.8668    2.3816 C.3       1 <0>         0.0000
     11 C11         6.8055   -3.7427    0.6616 C.3       1 <0>         0.0000
     12 C12         5.9953   -2.9363    1.6910 C.3       1 <0>         0.0000
     13 C13         2.4245   -2.8999    0.3599 C.3       1 <0>         0.0000
     14 C14         6.3308   -1.3748    3.7443 C.3       1 <0>         0.0000
     15 C15         2.0646   -3.8508   -0.8201 C.3       1 <0>         0.0000
     16 N1          1.4084   -1.7198    2.2232 N.am      1 <0>         0.0000
     17 N2          3.6959   -3.2182    0.9688 N.am      1 <0>         0.0000
     18 N3          7.9912   -4.3422    1.2125 N.am      1 <0>         0.0000
     19 O1          7.7606   -5.2290    2.2460 O.3       1 <0>         0.0000
     20 O2          9.6863   -3.3900   -0.0572 O.2       1 <0>         0.0000
     21 O3          4.7482   -1.1914    0.5542 O.2       1 <0>         0.0000
     22 O4          0.6993   -3.8762    1.7607 O.2       1 <0>         0.0000
     23 H1         10.0234   -4.7251    1.4239 H         1 <0>         0.0000
     24 H2          7.1779   -2.9820    4.9387 H         1 <0>         0.0000
     25 H3          5.5078   -3.2753    4.4268 H         1 <0>         0.0000
     26 H4          5.8592   -2.1311    5.7358 H         1 <0>         0.0000
     27 H5          8.2679   -0.6642    4.4570 H         1 <0>         0.0000
     28 H6          7.3145    0.5617    3.6015 H         1 <0>         0.0000
     29 H7          6.8785    0.0981    5.2508 H         1 <0>         0.0000
     30 H8          3.3133   -2.7845   -2.2720 H         1 <0>         0.0000
     31 H9          2.9723   -4.4622   -2.7277 H         1 <0>         0.0000
     32 H10         4.1465   -4.1154   -1.4578 H         1 <0>         0.0000
     33 H11         1.1705   -5.4095    0.4319 H         1 <0>         0.0000
     34 H12         2.8879   -5.6535    0.1281 H         1 <0>         0.0000
     35 H13         1.7055   -5.9859   -1.1517 H         1 <0>         0.0000
     36 H14        -0.0909   -3.4848   -0.7807 H         1 <0>         0.0000
     37 H15         0.4812   -4.1517   -2.3109 H         1 <0>         0.0000
     38 H16         0.7762   -2.4505   -1.9146 H         1 <0>         0.0000
     39 H17        -0.4080   -1.0916    3.0410 H         1 <0>         0.0000
     40 H18         1.0149   -0.8317    4.0742 H         1 <0>         0.0000
     41 H19         0.3553   -2.4685    3.8664 H         1 <0>         0.0000
     42 H20         7.8774   -2.2707    2.5271 H         1 <0>         0.0000
     43 H21         6.9742   -0.9994    1.7170 H         1 <0>         0.0000
     44 H22         6.1970   -4.5521    0.2444 H         1 <0>         0.0000
     45 H23         7.1292   -3.1080   -0.1699 H         1 <0>         0.0000
     46 H24         5.6479   -3.6501    2.4472 H         1 <0>         0.0000
     47 H25         2.5279   -1.8729   -0.0129 H         1 <0>         0.0000
     48 H26         5.3389   -0.9289    3.6068 H         1 <0>         0.0000
     49 H27         2.0322   -0.9706    1.9386 H         1 <0>         0.0000
     50 H28         3.8157   -4.1378    1.3829 H         1 <0>         0.0000
@<TRIPOS>BOND
     1    1   18 am
     2    1   20 2
     3    2   12 1
     4    2   17 am
     5    2   21 2
     6    3   13 1
     7    3   16 am
     8    3   22 2
     9    4   14 1
    10    5   14 1
    11    6   15 1
    12    7   15 1
    13    8   15 1
    14    9   16 1
    15   10   12 1
    16   10   14 1
    17   11   12 1
    18   11   18 1
    19   13   15 1
    20   13   17 1
    21   18   19 1
    22    1   23 1
    23    4   24 1
    24    4   25 1
    25    4   26 1
    26    5   27 1
    27    5   28 1
    28    5   29 1
    29    6   30 1
    30    6   31 1
    31    6   32 1
    32    7   33 1
    33    7   34 1
    34    7   35 1
    35    8   36 1
    36    8   37 1
    37    8   38 1
    38    9   39 1
    39    9   40 1
    40    9   41 1
    41   10   42 1
    42   10   43 1
    43   11   44 1
    44   11   45 1
    45   12   46 1
    46   13   47 1
    47   14   48 1
    48   16   49 1
    49   17   50 1
@<TRIPOS>MOLECULE
LIGAND
   50    49     0     0     0
SMALL
NO_CHARGES

@<TRIPOS>ATOM
      1 C1          8.9351   -1.3440    1.0840 C.2       1 <0>         0.0000
      2 C2          4.7609   -2.3304    1.0158 C.2       1 <0>         0.0000
      3 C3          1.6238   -2.1763    1.4428 C.2       1 <0>         0.0000
      4 C4          4.8998   -3.3220    4.5808 C.3       1 <0>         0.0000
      5 C5          5.9126   -1.1117    5.1647 C.3       1 <0>         0.0000
      6 C6          2.6382   -4.8237   -1.2732 C.3       1 <0>         0.0000
      7 C7          1.4139   -5.1834    0.8654 C.3       1 <0>         0.0000
      8 C8          0.3871   -3.7862   -0.9377 C.3       1 <0>         0.0000
      9 C9          1.1427   -2.2044    3.8715 C.3       1 <0>         0.0000
     10 C10         6.4405   -2.1272    2.9267 C.3       1 <0>         0.0000
     11 C11         7.1342   -3.0688    0.6654 C.3       1 <0>         0.0000
     12 C12         5.9953   -2.9363    1.6910 C.3       1 <0>         0.0000
     13 C13         2.4245   -2.8999    0.3599 C.3       1 <0>         0.0000
     14 C14         5.3645   -1.9750    4.0244 C.3       1 <0>         0.0000
     15 C15         1.7114   -4.1488   -0.2382 C.3       1 <0>         0.0000
     16 N1          1.8198   -2.7177    2.7048 N.am      1 <0>         0.0000
     17 N2          3.6959   -3.2182    0.9688 N.am      1 <0>         0.0000
     18 N3          7.8323   -1.8342    0.4261 N.am      1 <0>         0.0000
     19 O1          7.3093   -1.0662   -0.5958 O.3       1 <0>         0.0000
     20 O2          9.5287   -1.8872    2.0109 O.2       1 <0>         0.0000
     21 O3          4.7482   -1.1914    0.5542 O.2       1 <0>         0.0000
     22 O4          0.8744   -1.2316    1.1999 O.2       1 <0>         0.0000
     23 H1          9.2776   -0.3659    0.7022 H         1 <0>         0.0000
     24 H2          5.7423   -3.8772    5.0075 H         1 <0>         0.0000
     25 H3          4.4501   -3.9417    3.7978 H         1 <0>         0.0000
     26 H4          4.1642   -3.1925    5.3800 H         1 <0>         0.0000
     27 H5          6.7922   -1.5734    5.6261 H         1 <0>         0.0000
     28 H6          6.2016   -0.1209    4.7985 H         1 <0>         0.0000
     29 H7          5.1564   -0.9697    5.9440 H         1 <0>         0.0000
     30 H8          2.8872   -4.1345   -2.0879 H         1 <0>         0.0000
     31 H9          2.1738   -5.7124   -1.7140 H         1 <0>         0.0000
     32 H10         3.5794   -5.1449   -0.8119 H         1 <0>         0.0000
     33 H11         0.7565   -4.7621    1.6349 H         1 <0>         0.0000
     34 H12         2.3282   -5.5113    1.3711 H         1 <0>         0.0000
     35 H13         0.9158   -6.0685    0.4541 H         1 <0>         0.0000
     36 H14        -0.3050   -3.3025   -0.2384 H         1 <0>         0.0000
     37 H15        -0.1179   -4.6740   -1.3329 H         1 <0>         0.0000
     38 H16         0.5457   -3.0900   -1.7676 H         1 <0>         0.0000
     39 H17         1.7401   -1.4157    4.3360 H         1 <0>         0.0000
     40 H18         0.9874   -3.0042    4.6007 H         1 <0>         0.0000
     41 H19         0.1698   -1.7909    3.5925 H         1 <0>         0.0000
     42 H20         7.3251   -2.6069    3.3666 H         1 <0>         0.0000
     43 H21         6.7588   -1.1249    2.6110 H         1 <0>         0.0000
     44 H22         7.8751   -3.7989    1.0081 H         1 <0>         0.0000
     45 H23         6.7546   -3.4103   -0.3032 H         1 <0>         0.0000
     46 H24         5.7385   -3.9535    2.0094 H         1 <0>         0.0000
     47 H25         2.6549   -2.1876   -0.4426 H         1 <0>         0.0000
     48 H26         4.4913   -1.4577    3.6101 H         1 <0>         0.0000
     49 H27         2.4595   -3.4993    2.8111 H         1 <0>         0.0000
     50 H28         3.8157   -4.1378    1.3829 H         1 <0>         0.0000
@<TRIPOS>BOND
     1    1   18 am
     2    1   20 2
     3    2   12 1
     4    2   17 am
     5    2   21 2
     6    3   13 1
     7    3   16 am
     8    3   22 2
     9    4   14 1
    10    5   14 1
    11    6   15 1
    12    7   15 1
    13    8   15 1
    14    9   16 1
    15   10   12 1
    16   10   14 1
    17   11   12 1
    18   11   18 1
    19   13   15 1
    20   13   17 1
    21   18   19 1
    22    1   23 1
    23    4   24 1
    24    4   25 1
    25    4   26 1
    26    5   27 1
    27    5   28 1
    28    5   29 1
    29    6   30 1
    30    6   31 1
    31    6   32 1
    32    7   33 1
    33    7   34 1
    34    7   35 1
    35    8   36 1
    36    8   37 1
    37    8   38 1
    38    9   39 1
    39    9   40 1
    40    9   41 1
    41   10   42 1
    42   10   43 1
    43   11   44 1
    44   11   45 1
    45   12   46 1
    46   13   47 1
    47   14   48 1
    48   16   49 1
    49   17   50 1
@<TRIPOS>MOLECULE
LIGAND
   50    49     0     0     0
SMALL
NO_CHARGES

@<TRIPOS>ATOM
      1 C1          8.0050   -5.3521    1.3146 C.2       1 <0>         0.0000
      2 C2          4.7609   -2.3304    1.0158 C.2       1 <0>         0.0000
      3 C3          1.3743   -3.6105    1.2141 C.2       1 <0>         0.0000
      4 C4          5.6212   -3.8274    4.6518 C.3       1 <0>         0.0000
      5 C5          6.1055   -1.4698    5.3297 C.3       1 <0>         0.0000
      6 C6          2.9144   -2.0789   -1.9851 C.3       1 <0>         0.0000
      7 C7          3.2618   -4.4861   -1.4495 C.3       1 <0>         0.0000
      8 C8          0.9399   -3.5730   -1.6309 C.3       1 <0>         0.0000
      9 C9         -0.4638   -3.1822    2.8167 C.3       1 <0>         0.0000
     10 C10         6.4405   -2.1272    2.9267 C.3       1 <0>         0.0000
     11 C11         7.1342   -3.0688    0.6654 C.3       1 <0>         0.0000
     12 C12         5.9953   -2.9363    1.6910 C.3       1 <0>         0.0000
     13 C13         2.4245   -2.8999    0.3599 C.3       1 <0>         0.0000
     14 C14         5.5959   -2.3669    4.1976 C.3       1 <0>         0.0000
     15 C15         2.3718   -3.2623   -1.1540 C.3       1 <0>         0.0000
     16 N1          0.5772   -2.7269    1.9268 N.am      1 <0>         0.0000
     17 N2          3.6959   -3.2182    0.9688 N.am      1 <0>         0.0000
     18 N3          8.1489   -4.0093    1.0586 N.am      1 <0>         0.0000
     19 O1          9.4140   -3.4704    1.1874 O.3       1 <0>         0.0000
     20 O2          6.9619   -5.9959    1.2506 O.2       1 <0>         0.0000
     21 O3          4.7482   -1.1914    0.5542 O.2       1 <0>         0.0000
     22 O4          1.2756   -4.8354    1.2685 O.2       1 <0>         0.0000
     23 H1          8.9484   -5.8500    1.6005 H         1 <0>         0.0000
     24 H2          6.6467   -4.1510    4.8609 H         1 <0>         0.0000
     25 H3          5.2091   -4.4897    3.8832 H         1 <0>         0.0000
     26 H4          5.0464   -3.9704    5.5714 H         1 <0>         0.0000
     27 H5          7.1480   -1.6962    5.5783 H         1 <0>         0.0000
     28 H6          6.0453   -0.4136    5.0465 H         1 <0>         0.0000
     29 H7          5.5042   -1.6053    6.2348 H         1 <0>         0.0000
     30 H8          2.3199   -1.1739   -1.8172 H         1 <0>         0.0000
     31 H9          2.8994   -2.2973   -3.0585 H         1 <0>         0.0000
     32 H10         3.9518   -1.8484   -1.7158 H         1 <0>         0.0000
     33 H11         2.9258   -5.3642   -0.8858 H         1 <0>         0.0000
     34 H12         4.3049   -4.3063   -1.1689 H         1 <0>         0.0000
     35 H13         3.2353   -4.7468   -2.5135 H         1 <0>         0.0000
     36 H14         0.5126   -4.4101   -1.0664 H         1 <0>         0.0000
     37 H15         0.9176   -3.8503   -2.6901 H         1 <0>         0.0000
     38 H16         0.2727   -2.7163   -1.4916 H         1 <0>         0.0000
     39 H17        -1.4067   -3.2811    2.2725 H         1 <0>         0.0000
     40 H18        -0.6020   -2.4684    3.6333 H         1 <0>         0.0000
     41 H19        -0.1993   -4.1542    3.2419 H         1 <0>         0.0000
     42 H20         7.4883   -2.3678    3.1512 H         1 <0>         0.0000
     43 H21         6.4148   -1.0554    2.6895 H         1 <0>         0.0000
     44 H22         6.7419   -3.4007   -0.3017 H         1 <0>         0.0000
     45 H23         7.6368   -2.1087    0.5083 H         1 <0>         0.0000
     46 H24         5.7385   -3.9535    2.0094 H         1 <0>         0.0000
     47 H25         2.3043   -1.8161    0.4837 H         1 <0>         0.0000
     48 H26         4.5539   -2.0890    4.0008 H         1 <0>         0.0000
     49 H27         0.7309   -1.7288    1.8190 H         1 <0>         0.0000
     50 H28         3.8157   -4.1378    1.3829 H         1 <0>         0.0000
@<TRIPOS>BOND
     1    1   18 am
     2    1   20 2
     3    2   12 1
     4    2   17 am
     5    2   21 2
     6    3   13 1
     7    3   16 am
     8    3   22 2
     9    4   14 1
    10    5   14 1
    11    6   15 1
    12    7   15 1
    13    8   15 1
    14    9   16 1
    15   10   12 1
    16   10   14 1
    17   11   12 1
    18   11   18 1
    19   13   15 1
    20   13   17 1
    21   18   19 1
    22    1   23 1
    23    4   24 1
    24    4   25 1
    25    4   26 1
    26    5   27 1
    27    5   28 1
    28    5   29 1
    29    6   30 1
    30    6   31 1
    31    6   32 1
    32    7   33 1
    33    7   34 1
    34    7   35 1
    35    8   36 1
    36    8   37 1
    37    8   38 1
    38    9   39 1
    39    9   40 1
    40    9   41 1
    41   10   42 1
    42   10   43 1
    43   11   44 1
    44   11   45 1
    45   12   46 1
    46   13   47 1
    47   14   48 1
    48   16   49 1
    49   17   50 1
@<TRIPOS>MOLECULE
LIGAND
   50    49     0     0     0
SMALL
NO_CHARGES

@<TRIPOS>ATOM
      1 C1          8.0812   -5.2529    2.2381 C.2       1 <0>         0.0000
      2 C2          4.7609   -2.3304    1.0158 C.2       1 <0>         0.0000
      3 C3          1.4114   -2.9063    1.5049 C.2       1 <0>         0.0000
      4 C4          5.5916   -1.8934    4.5978 C.3       1 <0>         0.0000
      5 C5          7.0929    0.0222    4.0244 C.3       1 <0>         0.0000
      6 C6          3.1857   -3.8003   -1.8813 C.3       1 <0>         0.0000
      7 C7          1.9543   -5.3076   -0.3278 C.3       1 <0>         0.0000
      8 C8          0.7370   -3.4626   -1.4991 C.3       1 <0>         0.0000
      9 C9          1.1615   -3.4976    3.8962 C.3       1 <0>         0.0000
     10 C10         6.8665   -1.8668    2.3816 C.3       1 <0>         0.0000
     11 C11         6.8055   -3.7427    0.6616 C.3       1 <0>         0.0000
     12 C12         5.9953   -2.9363    1.6910 C.3       1 <0>         0.0000
     13 C13         2.4245   -2.8999    0.3599 C.3       1 <0>         0.0000
     14 C14         6.1374   -1.0321    3.4575 C.3       1 <0>         0.0000
     15 C15         2.0646   -3.8508   -0.8201 C.3       1 <0>         0.0000
     16 N1          1.9484   -3.3823    2.6918 N.am      1 <0>         0.0000
     17 N2          3.6959   -3.2182    0.9688 N.am      1 <0>         0.0000
     18 N3          7.9912   -4.3422    1.2125 N.am      1 <0>         0.0000
     19 O1          9.1704   -3.9351    0.6197 O.3       1 <0>         0.0000
     20 O2          7.1439   -5.7230    2.8761 O.2       1 <0>         0.0000
     21 O3          4.7482   -1.1914    0.5542 O.2       1 <0>         0.0000
     22 O4          0.2437   -2.5453    1.3651 O.2       1 <0>         0.0000
     23 H1          9.1177   -5.5563    2.4686 H         1 <0>         0.0000
     24 H2          6.4006   -2.4456    5.0885 H         1 <0>         0.0000
     25 H3          4.8609   -2.6219    4.2310 H         1 <0>         0.0000
     26 H4          5.1097   -1.2817    5.3659 H         1 <0>         0.0000
     27 H5          7.9623   -0.4436    4.5008 H         1 <0>         0.0000
     28 H6          7.4545    0.6861    3.2321 H         1 <0>         0.0000
     29 H7          6.5886    0.6429    4.7727 H         1 <0>         0.0000
     30 H8          3.3133   -2.7845   -2.2720 H         1 <0>         0.0000
     31 H9          2.9723   -4.4622   -2.7277 H         1 <0>         0.0000
     32 H10         4.1465   -4.1154   -1.4578 H         1 <0>         0.0000
     33 H11         1.1705   -5.4095    0.4319 H         1 <0>         0.0000
     34 H12         2.8879   -5.6535    0.1281 H         1 <0>         0.0000
     35 H13         1.7055   -5.9859   -1.1517 H         1 <0>         0.0000
     36 H14        -0.0909   -3.4848   -0.7807 H         1 <0>         0.0000
     37 H15         0.4812   -4.1517   -2.3109 H         1 <0>         0.0000
     38 H16         0.7762   -2.4505   -1.9146 H         1 <0>         0.0000
     39 H17         1.2206   -2.5714    4.4737 H         1 <0>         0.0000
     40 H18         1.5323   -4.3210    4.5126 H         1 <0>         0.0000
     41 H19         0.1146   -3.6905    3.6467 H         1 <0>         0.0000
     42 H20         7.7322   -2.3581    2.8457 H         1 <0>         0.0000
     43 H21         7.2705   -1.1813    1.6250 H         1 <0>         0.0000
     44 H22         6.1970   -4.5521    0.2444 H         1 <0>         0.0000
     45 H23         7.1292   -3.1080   -0.1699 H         1 <0>         0.0000
     46 H24         5.6479   -3.6501    2.4472 H         1 <0>         0.0000
     47 H25         2.5279   -1.8729   -0.0129 H         1 <0>         0.0000
     48 H26         5.2955   -0.5008    2.9986 H         1 <0>         0.0000
     49 H27         2.9256   -3.6583    2.7141 H         1 <0>         0.0000
     50 H28         3.8157   -4.1378    1.3829 H         1 <0>         0.0000
@<TRIPOS>BOND
     1    1   18 am
     2    1   20 2
     3    2   12 1
     4    2   17 am
     5    2   21 2
     6    3   13 1
     7    3   16 am
     8    3   22 2
     9    4   14 1
    10    5   14 1
    11    6   15 1
    12    7   15 1
    13    8   15 1
    14    9   16 1
    15   10   12 1
    16   10   14 1
    17   11   12 1
    18   11   18 1
    19   13   15 1
    20   13   17 1
    21   18   19 1
    22    1   23 1
    23    4   24 1
    24    4   25 1
    25    4   26 1
    26    5   27 1
    27    5   28 1
    28    5   29 1
    29    6   30 1
    30    6   31 1
    31    6   32 1
    32    7   33 1
    33    7   34 1
    34    7   35 1
    35    8   36 1
    36    8   37 1
    37    8   38 1
    38    9   39 1
    39    9   40 1
    40    9   41 1
    41   10   42 1
    42   10   43 1
    43   11   44 1
    44   11   45 1
    45   12   46 1
    46   13   47 1
    47   14   48 1
    48   16   49 1
    49   17   50 1
@<TRIPOS>MOLECULE
LIGAND
   50    49     0     0     0
SMALL
NO_CHARGES

@<TRIPOS>ATOM
      1 C1          9.3378   -3.1321    2.2703 C.2       1 <0>         0.0000
      2 C2          4.7609   -2.3304    1.0158 C.2       1 <0>         0.0000
      3 C3          1.6238   -2.1763    1.4428 C.2       1 <0>         0.0000
      4 C4          5.4286   -5.0551    3.9022 C.3       1 <0>         0.0000
      5 C5          5.1681   -3.1669    5.5205 C.3       1 <0>         0.0000
      6 C6          2.6382   -4.8237   -1.2732 C.3       1 <0>         0.0000
      7 C7          1.4139   -5.1834    0.8654 C.3       1 <0>         0.0000
      8 C8          0.3871   -3.7862   -0.9377 C.3       1 <0>         0.0000
      9 C9          1.1427   -2.2044    3.8715 C.3       1 <0>         0.0000
     10 C10         6.0212   -2.6662    3.2096 C.3       1 <0>         0.0000
     11 C11         7.2695   -2.4142    1.0053 C.3       1 <0>         0.0000
     12 C12         5.9953   -2.9363    1.6910 C.3       1 <0>         0.0000
     13 C13         2.4245   -2.8999    0.3599 C.3       1 <0>         0.0000
     14 C14         5.0884   -3.5706    4.0452 C.3       1 <0>         0.0000
     15 C15         1.7114   -4.1488   -0.2382 C.3       1 <0>         0.0000
     16 N1          1.8198   -2.7177    2.7048 N.am      1 <0>         0.0000
     17 N2          3.6959   -3.2182    0.9688 N.am      1 <0>         0.0000
     18 N3          8.4249   -3.2358    1.2479 N.am      1 <0>         0.0000
     19 O1          8.6173   -4.2452    0.3251 O.3       1 <0>         0.0000
     20 O2          9.3248   -2.3015    3.1740 O.2       1 <0>         0.0000
     21 O3          4.7482   -1.1914    0.5542 O.2       1 <0>         0.0000
     22 O4          0.8744   -1.2316    1.1999 O.2       1 <0>         0.0000
     23 H1         10.1373   -3.8927    2.2264 H         1 <0>         0.0000
     24 H2          6.4596   -5.2491    4.2175 H         1 <0>         0.0000
     25 H3          5.3256   -5.3883    2.8641 H         1 <0>         0.0000
     26 H4          4.7804   -5.6761    4.5273 H         1 <0>         0.0000
     27 H5          6.1838   -3.2884    5.9121 H         1 <0>         0.0000
     28 H6          4.8754   -2.1200    5.6540 H         1 <0>         0.0000
     29 H7          4.4947   -3.7797    6.1290 H         1 <0>         0.0000
     30 H8          2.8872   -4.1345   -2.0879 H         1 <0>         0.0000
     31 H9          2.1738   -5.7124   -1.7140 H         1 <0>         0.0000
     32 H10         3.5794   -5.1449   -0.8119 H         1 <0>         0.0000
     33 H11         0.7565   -4.7621    1.6349 H         1 <0>         0.0000
     34 H12         2.3282   -5.5113    1.3711 H         1 <0>         0.0000
     35 H13         0.9158   -6.0685    0.4541 H         1 <0>         0.0000
     36 H14        -0.3050   -3.3025   -0.2384 H         1 <0>         0.0000
     37 H15        -0.1179   -4.6740   -1.3329 H         1 <0>         0.0000
     38 H16         0.5457   -3.0900   -1.7676 H         1 <0>         0.0000
     39 H17         1.7401   -1.4157    4.3360 H         1 <0>         0.0000
     40 H18         0.9874   -3.0042    4.6007 H         1 <0>         0.0000
     41 H19         0.1698   -1.7909    3.5925 H         1 <0>         0.0000
     42 H20         7.0493   -2.7891    3.5757 H         1 <0>         0.0000
     43 H21         5.7503   -1.6191    3.3985 H         1 <0>         0.0000
     44 H22         7.1283   -2.3661   -0.0797 H         1 <0>         0.0000
     45 H23         7.5195   -1.4064    1.3527 H         1 <0>         0.0000
     46 H24         5.9704   -4.0198    1.5260 H         1 <0>         0.0000
     47 H25         2.6549   -2.1876   -0.4426 H         1 <0>         0.0000
     48 H26         4.0519   -3.4254    3.7195 H         1 <0>         0.0000
     49 H27         2.4595   -3.4993    2.8111 H         1 <0>         0.0000
     50 H28         3.8157   -4.1378    1.3829 H         1 <0>         0.0000
@<TRIPOS>BOND
     1    1   18 am
     2    1   20 2
     3    2   12 1
     4    2   17 am
     5    2   21 2
     6    3   13 1
     7    3   16 am
     8    3   22 2
     9    4   14 1
    10    5   14 1
    11    6   15 1
    12    7   15 1
    13    8   15 1
    14    9   16 1
    15   10   12 1
    16   10   14 1
    17   11   12 1
    18   11   18 1
    19   13   15 1
    20   13   17 1
    21   18   19 1
    22    1   23 1
    23    4   24 1
    24    4   25 1
    25    4   26 1
    26    5   27 1
    27    5   28 1
    28    5   29 1
    29    6   30 1
    30    6   31 1
    31    6   32 1
    32    7   33 1
    33    7   34 1
    34    7   35 1
    35    8   36 1
    36    8   37 1
    37    8   38 1
    38    9   39 1
    39    9   40 1
    40    9   41 1
    41   10   42 1
    42   10   43 1
    43   11   44 1
    44   11   45 1
    45   12   46 1
    46   13   47 1
    47   14   48 1
    48   16   49 1
    49   17   50 1
@<TRIPOS>MOLECULE
LIGAND
   50    49     0     0     0
SMALL
NO_CHARGES

@<TRIPOS>ATOM
      1 C1          6.6167   -2.7186   -1.6426 C.2       1 <0>         0.0000
      2 C2          4.7609   -2.3304    1.0158 C.2       1 <0>         0.0000
      3 C3          1.9548   -1.6162    1.0446 C.2       1 <0>         0.0000
      4 C4          6.2068   -2.5045    4.7682 C.3       1 <0>         0.0000
      5 C5          7.2536   -0.2835    4.2952 C.3       1 <0>         0.0000
      6 C6          2.0155   -5.3270   -0.2360 C.3       1 <0>         0.0000
      7 C7          1.1035   -4.4371    1.9036 C.3       1 <0>         0.0000
      8 C8          0.0778   -3.7458   -0.2707 C.3       1 <0>         0.0000
      9 C9          0.8348    0.5461    0.5966 C.3       1 <0>         0.0000
     10 C10         6.8665   -1.8668    2.3816 C.3       1 <0>         0.0000
     11 C11         6.8055   -3.7427    0.6616 C.3       1 <0>         0.0000
     12 C12         5.9953   -2.9363    1.6910 C.3       1 <0>         0.0000
     13 C13         2.4245   -2.8999    0.3599 C.3       1 <0>         0.0000
     14 C14         6.3308   -1.3748    3.7443 C.3       1 <0>         0.0000
     15 C15         1.4067   -4.0765    0.4357 C.3       1 <0>         0.0000
     16 N1          1.3343   -0.7384    0.1680 N.am      1 <0>         0.0000
     17 N2          3.6959   -3.2182    0.9688 N.am      1 <0>         0.0000
     18 N3          7.2606   -2.9528   -0.4510 N.am      1 <0>         0.0000
     19 O1          8.4998   -2.3693   -0.2736 O.3       1 <0>         0.0000
     20 O2          7.0363   -2.0369   -2.5730 O.2       1 <0>         0.0000
     21 O3          4.7482   -1.1914    0.5542 O.2       1 <0>         0.0000
     22 O4          2.1356   -1.3931    2.2407 O.2       1 <0>         0.0000
     23 H1          5.6327   -3.2146   -1.7169 H         1 <0>         0.0000
     24 H2          7.1779   -2.9820    4.9387 H         1 <0>         0.0000
     25 H3          5.5078   -3.2753    4.4268 H         1 <0>         0.0000
     26 H4          5.8592   -2.1311    5.7358 H         1 <0>         0.0000
     27 H5          8.2679   -0.6642    4.4570 H         1 <0>         0.0000
     28 H6          7.3145    0.5617    3.6015 H         1 <0>         0.0000
     29 H7          6.8785    0.0981    5.2508 H         1 <0>         0.0000
     30 H8          2.2541   -5.1329   -1.2877 H         1 <0>         0.0000
     31 H9          1.3305   -6.1810   -0.1982 H         1 <0>         0.0000
     32 H10         2.9425   -5.6329    0.2628 H         1 <0>         0.0000
     33 H11         0.6668   -3.5850    2.4375 H         1 <0>         0.0000
     34 H12         2.0104   -4.7234    2.4466 H         1 <0>         0.0000
     35 H13         0.3913   -5.2673    1.9681 H         1 <0>         0.0000
     36 H14        -0.3923   -2.8611    0.1746 H         1 <0>         0.0000
     37 H15        -0.6390   -4.5698   -0.1902 H         1 <0>         0.0000
     38 H16         0.2276   -3.5306   -1.3336 H         1 <0>         0.0000
     39 H17        -0.2038    0.4548    0.9249 H         1 <0>         0.0000
     40 H18         0.8817    1.2638   -0.2270 H         1 <0>         0.0000
     41 H19         1.4345    0.9267    1.4277 H         1 <0>         0.0000
     42 H20         7.8774   -2.2707    2.5271 H         1 <0>         0.0000
     43 H21         6.9742   -0.9994    1.7170 H         1 <0>         0.0000
     44 H22         7.6920   -4.1821    1.1312 H         1 <0>         0.0000
     45 H23         6.2097   -4.5617    0.2452 H         1 <0>         0.0000
     46 H24         5.6479   -3.6501    2.4472 H         1 <0>         0.0000
     47 H25         2.6512   -2.6760   -0.6903 H         1 <0>         0.0000
     48 H26         5.3389   -0.9289    3.6068 H         1 <0>         0.0000
     49 H27         1.2283   -1.0078   -0.8054 H         1 <0>         0.0000
     50 H28         3.8157   -4.1378    1.3829 H         1 <0>         0.0000
@<TRIPOS>BOND
     1    1   18 am
     2    1   20 2
     3    2   12 1
     4    2   17 am
     5    2   21 2
     6    3   13 1
     7    3   16 am
     8    3   22 2
     9    4   14 1
    10    5   14 1
    11    6   15 1
    12    7   15 1
    13    8   15 1
    14    9   16 1
    15   10   12 1
    16   10   14 1
    17   11   12 1
    18   11   18 1
    19   13   15 1
    20   13   17 1
    21   18   19 1
    22    1   23 1
    23    4   24 1
    24    4   25 1
    25    4   26 1
    26    5   27 1
    27    5   28 1
    28    5   29 1
    29    6   30 1
    30    6   31 1
    31    6   32 1
    32    7   33 1
    33    7   34 1
    34    7   35 1
    35    8   36 1
    36    8   37 1
    37    8   38 1
    38    9   39 1
    39    9   40 1
    40    9   41 1
    41   10   42 1
    42   10   43 1
    43   11   44 1
    44   11   45 1
    45   12   46 1
    46   13   47 1
    47   14   48 1
    48   16   49 1
    49   17   50 1
@<TRIPOS>MOLECULE
LIGAND
   50    49     0     0     0
SMALL
NO_CHARGES

@<TRIPOS>ATOM
      1 C1          8.0539   -3.2639    4.0726 C.2       1 <0>         0.0000
      2 C2          4.7609   -2.3304    1.0158 C.2       1 <0>         0.0000
      3 C3          1.3743   -3.6105    1.2141 C.2       1 <0>         0.0000
      4 C4          8.5547   -3.1178   -0.0742 C.3       1 <0>         0.0000
      5 C5          7.6782   -5.2829   -0.9666 C.3       1 <0>         0.0000
      6 C6          3.5112   -2.5312   -1.8976 C.3       1 <0>         0.0000
      7 C7          2.5798   -4.7765   -1.3563 C.3       1 <0>         0.0000
      8 C8          1.0336   -2.8618   -1.8044 C.3       1 <0>         0.0000
      9 C9         -0.8899   -3.3247    2.1744 C.3       1 <0>         0.0000
     10 C10         6.4903   -4.2069    0.9698 C.3       1 <0>         0.0000
     11 C11         5.6912   -3.2135    3.1734 C.3       1 <0>         0.0000
     12 C12         5.9953   -2.9363    1.6910 C.3       1 <0>         0.0000
     13 C13         2.4245   -2.8999    0.3599 C.3       1 <0>         0.0000
     14 C14         7.2936   -3.9469   -0.3237 C.3       1 <0>         0.0000
     15 C15         2.3718   -3.2623   -1.1540 C.3       1 <0>         0.0000
     16 N1          0.2223   -2.8565    1.3827 N.am      1 <0>         0.0000
     17 N2          3.6959   -3.2182    0.9688 N.am      1 <0>         0.0000
     18 N3          6.7994   -3.7930    3.8839 N.am      1 <0>         0.0000
     19 O1          6.5444   -5.0339    4.4343 O.3       1 <0>         0.0000
     20 O2          8.9783   -3.7882    4.6866 O.2       1 <0>         0.0000
     21 O3          4.7482   -1.1914    0.5542 O.2       1 <0>         0.0000
     22 O4          1.5569   -4.7218    1.7089 O.2       1 <0>         0.0000
     23 H1          8.1885   -2.2717    3.6067 H         1 <0>         0.0000
     24 H2          9.2158   -3.6219    0.6392 H         1 <0>         0.0000
     25 H3          8.3079   -2.1320    0.3339 H         1 <0>         0.0000
     26 H4          9.1275   -2.9738   -0.9949 H         1 <0>         0.0000
     27 H5          8.3104   -5.8785   -0.2992 H         1 <0>         0.0000
     28 H6          6.7859   -5.8716   -1.2045 H         1 <0>         0.0000
     29 H7          8.2280   -5.1221   -1.9000 H         1 <0>         0.0000
     30 H8          3.4182   -1.4447   -1.7906 H         1 <0>         0.0000
     31 H9          3.5120   -2.7653   -2.9677 H         1 <0>         0.0000
     32 H10         4.4918   -2.8203   -1.5020 H         1 <0>         0.0000
     33 H11         1.7979   -5.3538   -0.8491 H         1 <0>         0.0000
     34 H12         3.5395   -5.1121   -0.9494 H         1 <0>         0.0000
     35 H13         2.5489   -5.0416   -2.4191 H         1 <0>         0.0000
     36 H14         0.1926   -3.3589   -1.3070 H         1 <0>         0.0000
     37 H15         0.9978   -3.1431   -2.8622 H         1 <0>         0.0000
     38 H16         0.8573   -1.7835   -1.7352 H         1 <0>         0.0000
     39 H17        -1.5882   -3.8849    1.5471 H         1 <0>         0.0000
     40 H18        -1.4189   -2.4783    2.6208 H         1 <0>         0.0000
     41 H19        -0.5348   -3.9781    2.9759 H         1 <0>         0.0000
     42 H20         7.1160   -4.7876    1.6607 H         1 <0>         0.0000
     43 H21         5.6310   -4.8442    0.7228 H         1 <0>         0.0000
     44 H22         5.4249   -2.2852    3.6898 H         1 <0>         0.0000
     45 H23         4.8500   -3.9063    3.2803 H         1 <0>         0.0000
     46 H24         6.7931   -2.1847    1.6686 H         1 <0>         0.0000
     47 H25         2.3043   -1.8161    0.4837 H         1 <0>         0.0000
     48 H26         6.6656   -3.4052   -1.0405 H         1 <0>         0.0000
     49 H27         0.1595   -1.9470    0.9352 H         1 <0>         0.0000
     50 H28         3.8157   -4.1378    1.3829 H         1 <0>         0.0000
@<TRIPOS>BOND
     1    1   18 am
     2    1   20 2
     3    2   12 1
     4    2   17 am
     5    2   21 2
     6    3   13 1
     7    3   16 am
     8    3   22 2
     9    4   14 1
    10    5   14 1
    11    6   15 1
    12    7   15 1
    13    8   15 1
    14    9   16 1
    15   10   12 1
    16   10   14 1
    17   11   12 1
    18   11   18 1
    19   13   15 1
    20   13   17 1
    21   18   19 1
    22    1   23 1
    23    4   24 1
    24    4   25 1
    25    4   26 1
    26    5   27 1
    27    5   28 1
    28    5   29 1
    29    6   30 1
    30    6   31 1
    31    6   32 1
    32    7   33 1
    33    7   34 1
    34    7   35 1
    35    8   36 1
    36    8   37 1
    37    8   38 1
    38    9   39 1
    39    9   40 1
    40    9   41 1
    41   10   42 1
    42   10   43 1
    43   11   44 1
    44   11   45 1
    45   12   46 1
    46   13   47 1
    47   14   48 1
    48   16   49 1
    49   17   50 1
@<TRIPOS>MOLECULE
LIGAND
   50    49     0     0     0
SMALL
NO_CHARGES

@<TRIPOS>ATOM
      1 C1          8.4692   -0.7428    2.4751 C.2       1 <0>         0.0000
      2 C2          4.7609   -2.3304    1.0158 C.2       1 <0>         0.0000
      3 C3          1.6238   -2.1763    1.4428 C.2       1 <0>         0.0000
      4 C4          5.4286   -5.0551    3.9022 C.3       1 <0>         0.0000
      5 C5          5.1681   -3.1669    5.5205 C.3       1 <0>         0.0000
      6 C6          2.6382   -4.8237   -1.2732 C.3       1 <0>         0.0000
      7 C7          1.4139   -5.1834    0.8654 C.3       1 <0>         0.0000
      8 C8          0.3871   -3.7862   -0.9377 C.3       1 <0>         0.0000
      9 C9          0.0532   -0.2939    1.7895 C.3       1 <0>         0.0000
     10 C10         6.0212   -2.6662    3.2096 C.3       1 <0>         0.0000
     11 C11         7.2695   -2.4142    1.0053 C.3       1 <0>         0.0000
     12 C12         5.9953   -2.9363    1.6910 C.3       1 <0>         0.0000
     13 C13         2.4245   -2.8999    0.3599 C.3       1 <0>         0.0000
     14 C14         5.0884   -3.5706    4.0452 C.3       1 <0>         0.0000
     15 C15         1.7114   -4.1488   -0.2382 C.3       1 <0>         0.0000
     16 N1          0.8675   -1.1285    0.9389 N.am      1 <0>         0.0000
     17 N2          3.6959   -3.2182    0.9688 N.am      1 <0>         0.0000
     18 N3          7.6460   -1.0931    1.4316 N.am      1 <0>         0.0000
     19 O1          7.0989   -0.0693    0.6831 O.3       1 <0>         0.0000
     20 O2          9.0386   -1.5142    3.2414 O.2       1 <0>         0.0000
     21 O3          4.7482   -1.1914    0.5542 O.2       1 <0>         0.0000
     22 O4          1.6741   -2.4892    2.6314 O.2       1 <0>         0.0000
     23 H1          8.5956    0.3483    2.5898 H         1 <0>         0.0000
     24 H2          6.4596   -5.2491    4.2175 H         1 <0>         0.0000
     25 H3          5.3256   -5.3883    2.8641 H         1 <0>         0.0000
     26 H4          4.7804   -5.6761    4.5273 H         1 <0>         0.0000
     27 H5          6.1838   -3.2884    5.9121 H         1 <0>         0.0000
     28 H6          4.8754   -2.1200    5.6540 H         1 <0>         0.0000
     29 H7          4.4947   -3.7797    6.1290 H         1 <0>         0.0000
     30 H8          2.8872   -4.1345   -2.0879 H         1 <0>         0.0000
     31 H9          2.1738   -5.7124   -1.7140 H         1 <0>         0.0000
     32 H10         3.5794   -5.1449   -0.8119 H         1 <0>         0.0000
     33 H11         0.7565   -4.7621    1.6349 H         1 <0>         0.0000
     34 H12         2.3282   -5.5113    1.3711 H         1 <0>         0.0000
     35 H13         0.9158   -6.0685    0.4541 H         1 <0>         0.0000
     36 H14        -0.3050   -3.3025   -0.2384 H         1 <0>         0.0000
     37 H15        -0.1179   -4.6740   -1.3329 H         1 <0>         0.0000
     38 H16         0.5457   -3.0900   -1.7676 H         1 <0>         0.0000
     39 H17        -0.9522   -0.7139    1.8767 H         1 <0>         0.0000
     40 H18        -0.0213    0.7135    1.3710 H         1 <0>         0.0000
     41 H19         0.4945   -0.2269    2.7876 H         1 <0>         0.0000
     42 H20         7.0493   -2.7891    3.5757 H         1 <0>         0.0000
     43 H21         5.7503   -1.6191    3.3985 H         1 <0>         0.0000
     44 H22         8.1163   -3.0762    1.2156 H         1 <0>         0.0000
     45 H23         7.1431   -2.3718   -0.0816 H         1 <0>         0.0000
     46 H24         5.9704   -4.0198    1.5260 H         1 <0>         0.0000
     47 H25         2.6549   -2.1876   -0.4426 H         1 <0>         0.0000
     48 H26         4.0519   -3.4254    3.7195 H         1 <0>         0.0000
     49 H27         0.8872   -0.9429   -0.0594 H         1 <0>         0.0000
     50 H28         3.8157   -4.1378    1.3829 H         1 <0>         0.0000
@<TRIPOS>BOND
     1    1   18 am
     2    1   20 2
     3    2   12 1
     4    2   17 am
     5    2   21 2
     6    3   13 1
     7    3   16 am
     8    3   22 2
     9    4   14 1
    10    5   14 1
    11    6   15 1
    12    7   15 1
    13    8   15 1
    14    9   16 1
    15   10   12 1
    16   10   14 1
    17   11   12 1
    18   11   18 1
    19   13   15 1
    20   13   17 1
    21   18   19 1
    22    1   23 1
    23    4   24 1
    24    4   25 1
    25    4   26 1
    26    5   27 1
    27    5   28 1
    28    5   29 1
    29    6   30 1
    30    6   31 1
    31    6   32 1
    32    7   33 1
    33    7   34 1
    34    7   35 1
    35    8   36 1
    36    8   37 1
    37    8   38 1
    38    9   39 1
    39    9   40 1
    40    9   41 1
    41   10   42 1
    42   10   43 1
    43   11   44 1
    44   11   45 1
    45   12   46 1
    46   13   47 1
    47   14   48 1
    48   16   49 1
    49   17   50 1
@<TRIPOS>MOLECULE
LIGAND
   50    49     0     0     0
SMALL
NO_CHARGES

@<TRIPOS>ATOM
      1 C1          5.8219   -5.5815   -0.7684 C.2       1 <0>         0.0000
      2 C2          4.7609   -2.3304    1.0158 C.2       1 <0>         0.0000
      3 C3          1.6238   -2.1763    1.4428 C.2       1 <0>         0.0000
      4 C4          5.5916   -1.8934    4.5978 C.3       1 <0>         0.0000
      5 C5          7.0929    0.0222    4.0244 C.3       1 <0>         0.0000
      6 C6          2.1972   -4.3736   -1.6870 C.3       1 <0>         0.0000
      7 C7          2.0616   -5.4127    0.5721 C.3       1 <0>         0.0000
      8 C8          0.1787   -3.9917   -0.2602 C.3       1 <0>         0.0000
      9 C9          0.7109    0.0436    2.0502 C.3       1 <0>         0.0000
     10 C10         6.8665   -1.8668    2.3816 C.3       1 <0>         0.0000
     11 C11         6.8055   -3.7427    0.6616 C.3       1 <0>         0.0000
     12 C12         5.9953   -2.9363    1.6910 C.3       1 <0>         0.0000
     13 C13         2.4245   -2.8999    0.3599 C.3       1 <0>         0.0000
     14 C14         6.1374   -1.0321    3.4575 C.3       1 <0>         0.0000
     15 C15         1.7114   -4.1488   -0.2382 C.3       1 <0>         0.0000
     16 N1          1.4216   -0.8351    1.1525 N.am      1 <0>         0.0000
     17 N2          3.6959   -3.2182    0.9688 N.am      1 <0>         0.0000
     18 N3          6.2725   -5.0565    0.4193 N.am      1 <0>         0.0000
     19 O1          6.2180   -5.8698    1.5343 O.3       1 <0>         0.0000
     20 O2          5.7956   -5.0070   -1.8527 O.2       1 <0>         0.0000
     21 O3          4.7482   -1.1914    0.5542 O.2       1 <0>         0.0000
     22 O4          1.2284   -2.7340    2.4655 O.2       1 <0>         0.0000
     23 H1          5.4607   -6.6215   -0.6818 H         1 <0>         0.0000
     24 H2          6.4006   -2.4456    5.0885 H         1 <0>         0.0000
     25 H3          4.8609   -2.6219    4.2310 H         1 <0>         0.0000
     26 H4          5.1097   -1.2817    5.3659 H         1 <0>         0.0000
     27 H5          7.9623   -0.4436    4.5008 H         1 <0>         0.0000
     28 H6          7.4545    0.6861    3.2321 H         1 <0>         0.0000
     29 H7          6.5886    0.6429    4.7727 H         1 <0>         0.0000
     30 H8          1.9755   -3.5045   -2.3165 H         1 <0>         0.0000
     31 H9          1.7217   -5.2491   -2.1424 H         1 <0>         0.0000
     32 H10         3.2803   -4.5391   -1.7204 H         1 <0>         0.0000
     33 H11         1.7403   -5.3146    1.6156 H         1 <0>         0.0000
     34 H12         3.1406   -5.5993    0.5864 H         1 <0>         0.0000
     35 H13         1.5681   -6.2984    0.1566 H         1 <0>         0.0000
     36 H14        -0.2125   -3.8293    0.7511 H         1 <0>         0.0000
     37 H15        -0.3138   -4.8846   -0.6595 H         1 <0>         0.0000
     38 H16        -0.1312   -3.1347   -0.8670 H         1 <0>         0.0000
     39 H17        -0.3565    0.0379    1.8148 H         1 <0>         0.0000
     40 H18         1.0868    1.0659    1.9547 H         1 <0>         0.0000
     41 H19         0.8449   -0.2838    3.0846 H         1 <0>         0.0000
     42 H20         7.7322   -2.3581    2.8457 H         1 <0>         0.0000
     43 H21         7.2705   -1.1813    1.6250 H         1 <0>         0.0000
     44 H22         6.8299   -3.2204   -0.3007 H         1 <0>         0.0000
     45 H23         7.8405   -3.8774    0.9927 H         1 <0>         0.0000
     46 H24         5.6479   -3.6501    2.4472 H         1 <0>         0.0000
     47 H25         2.6549   -2.1876   -0.4426 H         1 <0>         0.0000
     48 H26         5.2955   -0.5008    2.9986 H         1 <0>         0.0000
     49 H27         1.7849   -0.4599    0.2815 H         1 <0>         0.0000
     50 H28         3.8157   -4.1378    1.3829 H         1 <0>         0.0000
@<TRIPOS>BOND
     1    1   18 am
     2    1   20 2
     3    2   12 1
     4    2   17 am
     5    2   21 2
     6    3   13 1
     7    3   16 am
     8    3   22 2
     9    4   14 1
    10    5   14 1
    11    6   15 1
    12    7   15 1
    13    8   15 1
    14    9   16 1
    15   10   12 1
    16   10   14 1
    17   11   12 1
    18   11   18 1
    19   13   15 1
    20   13   17 1
    21   18   19 1
    22    1   23 1
    23    4   24 1
    24    4   25 1
    25    4   26 1
    26    5   27 1
    27    5   28 1
    28    5   29 1
    29    6   30 1
    30    6   31 1
    31    6   32 1
    32    7   33 1
    33    7   34 1
    34    7   35 1
    35    8   36 1
    36    8   37 1
    37    8   38 1
    38    9   39 1
    39    9   40 1
    40    9   41 1
    41   10   42 1
    42   10   43 1
    43   11   44 1
    44   11   45 1
    45   12   46 1
    46   13   47 1
    47   14   48 1
    48   16   49 1
    49   17   50 1
@<TRIPOS>MOLECULE
LIGAND
   50    49     0     0     0
SMALL
NO_CHARGES

@<TRIPOS>ATOM
      1 C1          8.7148   -3.8168   -0.5236 C.2       1 <0>         0.0000
      2 C2          4.7609   -2.3304    1.0158 C.2       1 <0>         0.0000
      3 C3          1.4114   -2.9063    1.5049 C.2       1 <0>         0.0000
      4 C4          5.4286   -5.0551    3.9022 C.3       1 <0>         0.0000
      5 C5          5.1681   -3.1669    5.5205 C.3       1 <0>         0.0000
      6 C6          3.1857   -3.8003   -1.8813 C.3       1 <0>         0.0000
      7 C7          1.9543   -5.3076   -0.3278 C.3       1 <0>         0.0000
      8 C8          0.7370   -3.4626   -1.4991 C.3       1 <0>         0.0000
      9 C9         -0.5781   -1.7107    2.3670 C.3       1 <0>         0.0000
     10 C10         6.0212   -2.6662    3.2096 C.3       1 <0>         0.0000
     11 C11         7.2695   -2.4142    1.0053 C.3       1 <0>         0.0000
     12 C12         5.9953   -2.9363    1.6910 C.3       1 <0>         0.0000
     13 C13         2.4245   -2.8999    0.3599 C.3       1 <0>         0.0000
     14 C14         5.0884   -3.5706    4.0452 C.3       1 <0>         0.0000
     15 C15         2.0646   -3.8508   -0.8201 C.3       1 <0>         0.0000
     16 N1          0.4604   -1.9038    1.3835 N.am      1 <0>         0.0000
     17 N2          3.6959   -3.2182    0.9688 N.am      1 <0>         0.0000
     18 N3          7.5808   -3.1022   -0.2189 N.am      1 <0>         0.0000
     19 O1          6.6030   -3.0183   -1.1907 O.3       1 <0>         0.0000
     20 O2          8.9475   -4.3930   -1.5821 O.2       1 <0>         0.0000
     21 O3          4.7482   -1.1914    0.5542 O.2       1 <0>         0.0000
     22 O4          1.4623   -3.7076    2.4368 O.2       1 <0>         0.0000
     23 H1          9.4534   -3.8427    0.2970 H         1 <0>         0.0000
     24 H2          6.4596   -5.2491    4.2175 H         1 <0>         0.0000
     25 H3          5.3256   -5.3883    2.8641 H         1 <0>         0.0000
     26 H4          4.7804   -5.6761    4.5273 H         1 <0>         0.0000
     27 H5          6.1838   -3.2884    5.9121 H         1 <0>         0.0000
     28 H6          4.8754   -2.1200    5.6540 H         1 <0>         0.0000
     29 H7          4.4947   -3.7797    6.1290 H         1 <0>         0.0000
     30 H8          3.3133   -2.7845   -2.2720 H         1 <0>         0.0000
     31 H9          2.9723   -4.4622   -2.7277 H         1 <0>         0.0000
     32 H10         4.1465   -4.1154   -1.4578 H         1 <0>         0.0000
     33 H11         1.1705   -5.4095    0.4319 H         1 <0>         0.0000
     34 H12         2.8879   -5.6535    0.1281 H         1 <0>         0.0000
     35 H13         1.7055   -5.9859   -1.1517 H         1 <0>         0.0000
     36 H14        -0.0909   -3.4848   -0.7807 H         1 <0>         0.0000
     37 H15         0.4812   -4.1517   -2.3109 H         1 <0>         0.0000
     38 H16         0.7762   -2.4505   -1.9146 H         1 <0>         0.0000
     39 H17        -1.4589   -2.3023    2.1044 H         1 <0>         0.0000
     40 H18        -0.8634   -0.6562    2.4133 H         1 <0>         0.0000
     41 H19        -0.2264   -2.0222    3.3542 H         1 <0>         0.0000
     42 H20         7.0493   -2.7891    3.5757 H         1 <0>         0.0000
     43 H21         5.7503   -1.6191    3.3985 H         1 <0>         0.0000
     44 H22         7.1657   -1.3514    0.7623 H         1 <0>         0.0000
     45 H23         8.1413   -2.5219    1.6590 H         1 <0>         0.0000
     46 H24         5.9704   -4.0198    1.5260 H         1 <0>         0.0000
     47 H25         2.5279   -1.8729   -0.0129 H         1 <0>         0.0000
     48 H26         4.0519   -3.4254    3.7195 H         1 <0>         0.0000
     49 H27         0.4960   -1.2867    0.5777 H         1 <0>         0.0000
     50 H28         3.8157   -4.1378    1.3829 H         1 <0>         0.0000
@<TRIPOS>BOND
     1    1   18 am
     2    1   20 2
     3    2   12 1
     4    2   17 am
     5    2   21 2
     6    3   13 1
     7    3   16 am
     8    3   22 2
     9    4   14 1
    10    5   14 1
    11    6   15 1
    12    7   15 1
    13    8   15 1
    14    9   16 1
    15   10   12 1
    16   10   14 1
    17   11   12 1
    18   11   18 1
    19   13   15 1
    20   13   17 1
    21   18   19 1
    22    1   23 1
    23    4   24 1
    24    4   25 1
    25    4   26 1
    26    5   27 1
    27    5   28 1
    28    5   29 1
    29    6   30 1
    30    6   31 1
    31    6   32 1
    32    7   33 1
    33    7   34 1
    34    7   35 1
    35    8   36 1
    36    8   37 1
    37    8   38 1
    38    9   39 1
    39    9   40 1
    40    9   41 1
    41   10   42 1
    42   10   43 1
    43   11   44 1
    44   11   45 1
    45   12   46 1
    46   13   47 1
    47   14   48 1
    48   16   49 1
    49   17   50 1
@<TRIPOS>MOLECULE
LIGAND
   50    49     0     0     0
SMALL
NO_CHARGES

@<TRIPOS>ATOM
      1 C1          7.5793   -4.4967    4.2605 C.2       1 <0>         0.0000
      2 C2          4.7609   -2.3304    1.0158 C.2       1 <0>         0.0000
      3 C3          1.9548   -1.6162    1.0446 C.2       1 <0>         0.0000
      4 C4          7.9668   -2.9805   -0.7195 C.3       1 <0>         0.0000
      5 C5          7.2752   -5.3485   -1.1277 C.3       1 <0>         0.0000
      6 C6          2.0155   -5.3270   -0.2360 C.3       1 <0>         0.0000
      7 C7          1.1035   -4.4371    1.9036 C.3       1 <0>         0.0000
      8 C8          0.0778   -3.7458   -0.2707 C.3       1 <0>         0.0000
      9 C9          1.8710   -0.4888    3.2474 C.3       1 <0>         0.0000
     10 C10         6.4903   -4.2069    0.9698 C.3       1 <0>         0.0000
     11 C11         5.6912   -3.2135    3.1734 C.3       1 <0>         0.0000
     12 C12         5.9953   -2.9363    1.6910 C.3       1 <0>         0.0000
     13 C13         2.4245   -2.8999    0.3599 C.3       1 <0>         0.0000
     14 C14         6.8518   -4.0083   -0.5189 C.3       1 <0>         0.0000
     15 C15         1.4067   -4.0765    0.4357 C.3       1 <0>         0.0000
     16 N1          2.2464   -1.5955    2.4005 N.am      1 <0>         0.0000
     17 N2          3.6959   -3.2182    0.9688 N.am      1 <0>         0.0000
     18 N3          6.8729   -3.3510    3.9817 N.am      1 <0>         0.0000
     19 O1          7.3330   -2.1714    4.5335 O.3       1 <0>         0.0000
     20 O2          7.3180   -5.6268    3.8588 O.2       1 <0>         0.0000
     21 O3          4.7482   -1.1914    0.5542 O.2       1 <0>         0.0000
     22 O4          1.3637   -0.7184    0.4464 O.2       1 <0>         0.0000
     23 H1          8.4551   -4.3273    4.9116 H         1 <0>         0.0000
     24 H2          8.8753   -3.2848   -0.1883 H         1 <0>         0.0000
     25 H3          7.6713   -1.9951   -0.3441 H         1 <0>         0.0000
     26 H4          8.2323   -2.8793   -1.7758 H         1 <0>         0.0000
     27 H5          8.1599   -5.7527   -0.6240 H         1 <0>         0.0000
     28 H6          6.4698   -6.0859   -1.0440 H         1 <0>         0.0000
     29 H7          7.5125   -5.2358   -2.1909 H         1 <0>         0.0000
     30 H8          2.2541   -5.1329   -1.2877 H         1 <0>         0.0000
     31 H9          1.3305   -6.1810   -0.1982 H         1 <0>         0.0000
     32 H10         2.9425   -5.6329    0.2628 H         1 <0>         0.0000
     33 H11         0.6668   -3.5850    2.4375 H         1 <0>         0.0000
     34 H12         2.0104   -4.7234    2.4466 H         1 <0>         0.0000
     35 H13         0.3913   -5.2673    1.9681 H         1 <0>         0.0000
     36 H14        -0.3923   -2.8611    0.1746 H         1 <0>         0.0000
     37 H15        -0.6390   -4.5698   -0.1902 H         1 <0>         0.0000
     38 H16         0.2276   -3.5306   -1.3336 H         1 <0>         0.0000
     39 H17         2.6703    0.2566    3.2680 H         1 <0>         0.0000
     40 H18         1.6893   -0.8381    4.2675 H         1 <0>         0.0000
     41 H19         0.9594   -0.0170    2.8710 H         1 <0>         0.0000
     42 H20         7.3727   -4.5944    1.4964 H         1 <0>         0.0000
     43 H21         5.7222   -4.9884    1.0394 H         1 <0>         0.0000
     44 H22         5.0986   -2.3982    3.6018 H         1 <0>         0.0000
     45 H23         5.1177   -4.1388    3.2917 H         1 <0>         0.0000
     46 H24         6.7931   -2.1847    1.6686 H         1 <0>         0.0000
     47 H25         2.6512   -2.6760   -0.6903 H         1 <0>         0.0000
     48 H26         5.9671   -3.6628   -1.0661 H         1 <0>         0.0000
     49 H27         2.7394   -2.3834    2.8099 H         1 <0>         0.0000
     50 H28         3.8157   -4.1378    1.3829 H         1 <0>         0.0000
@<TRIPOS>BOND
     1    1   18 am
     2    1   20 2
     3    2   12 1
     4    2   17 am
     5    2   21 2
     6    3   13 1
     7    3   16 am
     8    3   22 2
     9    4   14 1
    10    5   14 1
    11    6   15 1
    12    7   15 1
    13    8   15 1
    14    9   16 1
    15   10   12 1
    16   10   14 1
    17   11   12 1
    18   11   18 1
    19   13   15 1
    20   13   17 1
    21   18   19 1
    22    1   23 1
    23    4   24 1
    24    4   25 1
    25    4   26 1
    26    5   27 1
    27    5   28 1
    28    5   29 1
    29    6   30 1
    30    6   31 1
    31    6   32 1
    32    7   33 1
    33    7   34 1
    34    7   35 1
    35    8   36 1
    36    8   37 1
    37    8   38 1
    38    9   39 1
    39    9   40 1
    40    9   41 1
    41   10   42 1
    42   10   43 1
    43   11   44 1
    44   11   45 1
    45   12   46 1
    46   13   47 1
    47   14   48 1
    48   16   49 1
    49   17   50 1
@<TRIPOS>MOLECULE
LIGAND
   50    49     0     0     0
SMALL
NO_CHARGES

@<TRIPOS>ATOM
      1 C1          4.8014   -1.1421    4.3182 C.2       1 <0>         0.0000
      2 C2          4.7609   -2.3304    1.0158 C.2       1 <0>         0.0000
      3 C3          1.4114   -2.9063    1.5049 C.2       1 <0>         0.0000
      4 C4          7.9668   -2.9805   -0.7195 C.3       1 <0>         0.0000
      5 C5          7.2752   -5.3485   -1.1277 C.3       1 <0>         0.0000
      6 C6          1.9716   -3.0346   -2.1281 C.3       1 <0>         0.0000
      7 C7          3.1629   -4.9155   -1.0124 C.3       1 <0>         0.0000
      8 C8          0.7197   -4.5702   -0.6013 C.3       1 <0>         0.0000
      9 C9         -0.5781   -1.7107    2.3670 C.3       1 <0>         0.0000
     10 C10         6.4903   -4.2069    0.9698 C.3       1 <0>         0.0000
     11 C11         5.6912   -3.2135    3.1734 C.3       1 <0>         0.0000
     12 C12         5.9953   -2.9363    1.6910 C.3       1 <0>         0.0000
     13 C13         2.4245   -2.8999    0.3599 C.3       1 <0>         0.0000
     14 C14         6.8518   -4.0083   -0.5189 C.3       1 <0>         0.0000
     15 C15         2.0646   -3.8508   -0.8201 C.3       1 <0>         0.0000
     16 N1          0.4604   -1.9038    1.3835 N.am      1 <0>         0.0000
     17 N2          3.6959   -3.2182    0.9688 N.am      1 <0>         0.0000
     18 N3          5.7903   -2.0436    4.0042 N.am      1 <0>         0.0000
     19 O1          7.0443   -1.8225    4.5393 O.3       1 <0>         0.0000
     20 O2          3.6358   -1.1801    3.9353 O.2       1 <0>         0.0000
     21 O3          4.7482   -1.1914    0.5542 O.2       1 <0>         0.0000
     22 O4          1.4623   -3.7076    2.4368 O.2       1 <0>         0.0000
     23 H1          5.1422   -0.3267    4.9806 H         1 <0>         0.0000
     24 H2          8.8753   -3.2848   -0.1883 H         1 <0>         0.0000
     25 H3          7.6713   -1.9951   -0.3441 H         1 <0>         0.0000
     26 H4          8.2323   -2.8793   -1.7758 H         1 <0>         0.0000
     27 H5          8.1599   -5.7527   -0.6240 H         1 <0>         0.0000
     28 H6          6.4698   -6.0859   -1.0440 H         1 <0>         0.0000
     29 H7          7.5125   -5.2358   -2.1909 H         1 <0>         0.0000
     30 H8          1.2033   -2.2569   -2.0537 H         1 <0>         0.0000
     31 H9          1.7252   -3.6703   -2.9855 H         1 <0>         0.0000
     32 H10         2.9231   -2.5396   -2.3546 H         1 <0>         0.0000
     33 H11         3.2779   -5.5312   -0.1127 H         1 <0>         0.0000
     34 H12         4.1381   -4.4603   -1.2147 H         1 <0>         0.0000
     35 H13         2.9214   -5.5874   -1.8436 H         1 <0>         0.0000
     36 H14         0.7392   -5.1646    0.3197 H         1 <0>         0.0000
     37 H15         0.4883   -5.2543   -1.4246 H         1 <0>         0.0000
     38 H16        -0.1084   -3.8600   -0.5090 H         1 <0>         0.0000
     39 H17        -1.4589   -2.3023    2.1044 H         1 <0>         0.0000
     40 H18        -0.8634   -0.6562    2.4133 H         1 <0>         0.0000
     41 H19        -0.2264   -2.0222    3.3542 H         1 <0>         0.0000
     42 H20         7.3727   -4.5944    1.4964 H         1 <0>         0.0000
     43 H21         5.7222   -4.9884    1.0394 H         1 <0>         0.0000
     44 H22         4.6761   -3.6079    3.2888 H         1 <0>         0.0000
     45 H23         6.3842   -3.9541    3.5861 H         1 <0>         0.0000
     46 H24         6.7931   -2.1847    1.6686 H         1 <0>         0.0000
     47 H25         2.5279   -1.8729   -0.0129 H         1 <0>         0.0000
     48 H26         5.9671   -3.6628   -1.0661 H         1 <0>         0.0000
     49 H27         0.4960   -1.2867    0.5777 H         1 <0>         0.0000
     50 H28         3.8157   -4.1378    1.3829 H         1 <0>         0.0000
@<TRIPOS>BOND
     1    1   18 am
     2    1   20 2
     3    2   12 1
     4    2   17 am
     5    2   21 2
     6    3   13 1
     7    3   16 am
     8    3   22 2
     9    4   14 1
    10    5   14 1
    11    6   15 1
    12    7   15 1
    13    8   15 1
    14    9   16 1
    15   10   12 1
    16   10   14 1
    17   11   12 1
    18   11   18 1
    19   13   15 1
    20   13   17 1
    21   18   19 1
    22    1   23 1
    23    4   24 1
    24    4   25 1
    25    4   26 1
    26    5   27 1
    27    5   28 1
    28    5   29 1
    29    6   30 1
    30    6   31 1
    31    6   32 1
    32    7   33 1
    33    7   34 1
    34    7   35 1
    35    8   36 1
    36    8   37 1
    37    8   38 1
    38    9   39 1
    39    9   40 1
    40    9   41 1
    41   10   42 1
    42   10   43 1
    43   11   44 1
    44   11   45 1
    45   12   46 1
    46   13   47 1
    47   14   48 1
    48   16   49 1
    49   17   50 1
@<TRIPOS>MOLECULE
LIGAND
   50    49     0     0     0
SMALL
NO_CHARGES

@<TRIPOS>ATOM
      1 C1          7.0308   -1.2119   -1.0477 C.2       1 <0>         0.0000
      2 C2          4.7609   -2.3304    1.0158 C.2       1 <0>         0.0000
      3 C3          1.6238   -2.1763    1.4428 C.2       1 <0>         0.0000
      4 C4          4.8998   -3.3220    4.5808 C.3       1 <0>         0.0000
      5 C5          5.9126   -1.1117    5.1647 C.3       1 <0>         0.0000
      6 C6          2.6382   -4.8237   -1.2732 C.3       1 <0>         0.0000
      7 C7          1.4139   -5.1834    0.8654 C.3       1 <0>         0.0000
      8 C8          0.3871   -3.7862   -0.9377 C.3       1 <0>         0.0000
      9 C9          1.1427   -2.2044    3.8715 C.3       1 <0>         0.0000
     10 C10         6.4405   -2.1272    2.9267 C.3       1 <0>         0.0000
     11 C11         7.1342   -3.0688    0.6654 C.3       1 <0>         0.0000
     12 C12         5.9953   -2.9363    1.6910 C.3       1 <0>         0.0000
     13 C13         2.4245   -2.8999    0.3599 C.3       1 <0>         0.0000
     14 C14         5.3645   -1.9750    4.0244 C.3       1 <0>         0.0000
     15 C15         1.7114   -4.1488   -0.2382 C.3       1 <0>         0.0000
     16 N1          1.8198   -2.7177    2.7048 N.am      1 <0>         0.0000
     17 N2          3.6959   -3.2182    0.9688 N.am      1 <0>         0.0000
     18 N3          7.5271   -1.8131    0.0844 N.am      1 <0>         0.0000
     19 O1          8.5280   -1.1509    0.7681 O.3       1 <0>         0.0000
     20 O2          6.1462   -1.6525   -1.7755 O.2       1 <0>         0.0000
     21 O3          4.7482   -1.1914    0.5542 O.2       1 <0>         0.0000
     22 O4          0.8744   -1.2316    1.1999 O.2       1 <0>         0.0000
     23 H1          7.5085   -0.2431   -1.2779 H         1 <0>         0.0000
     24 H2          5.7423   -3.8772    5.0075 H         1 <0>         0.0000
     25 H3          4.4501   -3.9417    3.7978 H         1 <0>         0.0000
     26 H4          4.1642   -3.1925    5.3800 H         1 <0>         0.0000
     27 H5          6.7922   -1.5734    5.6261 H         1 <0>         0.0000
     28 H6          6.2016   -0.1209    4.7985 H         1 <0>         0.0000
     29 H7          5.1564   -0.9697    5.9440 H         1 <0>         0.0000
     30 H8          2.8872   -4.1345   -2.0879 H         1 <0>         0.0000
     31 H9          2.1738   -5.7124   -1.7140 H         1 <0>         0.0000
     32 H10         3.5794   -5.1449   -0.8119 H         1 <0>         0.0000
     33 H11         0.7565   -4.7621    1.6349 H         1 <0>         0.0000
     34 H12         2.3282   -5.5113    1.3711 H         1 <0>         0.0000
     35 H13         0.9158   -6.0685    0.4541 H         1 <0>         0.0000
     36 H14        -0.3050   -3.3025   -0.2384 H         1 <0>         0.0000
     37 H15        -0.1179   -4.6740   -1.3329 H         1 <0>         0.0000
     38 H16         0.5457   -3.0900   -1.7676 H         1 <0>         0.0000
     39 H17         1.7401   -1.4157    4.3360 H         1 <0>         0.0000
     40 H18         0.9874   -3.0042    4.6007 H         1 <0>         0.0000
     41 H19         0.1698   -1.7909    3.5925 H         1 <0>         0.0000
     42 H20         7.3251   -2.6069    3.3666 H         1 <0>         0.0000
     43 H21         6.7588   -1.1249    2.6110 H         1 <0>         0.0000
     44 H22         8.0241   -3.5011    1.1351 H         1 <0>         0.0000
     45 H23         6.8444   -3.7236   -0.1630 H         1 <0>         0.0000
     46 H24         5.7385   -3.9535    2.0094 H         1 <0>         0.0000
     47 H25         2.6549   -2.1876   -0.4426 H         1 <0>         0.0000
     48 H26         4.4913   -1.4577    3.6101 H         1 <0>         0.0000
     49 H27         2.4595   -3.4993    2.8111 H         1 <0>         0.0000
     50 H28         3.8157   -4.1378    1.3829 H         1 <0>         0.0000
@<TRIPOS>BOND
     1    1   18 am
     2    1   20 2
     3    2   12 1
     4    2   17 am
     5    2   21 2
     6    3   13 1
     7    3   16 am
     8    3   22 2
     9    4   14 1
    10    5   14 1
    11    6   15 1
    12    7   15 1
    13    8   15 1
    14    9   16 1
    15   10   12 1
    16   10   14 1
    17   11   12 1
    18   11   18 1
    19   13   15 1
    20   13   17 1
    21   18   19 1
    22    1   23 1
    23    4   24 1
    24    4   25 1
    25    4   26 1
    26    5   27 1
    27    5   28 1
    28    5   29 1
    29    6   30 1
    30    6   31 1
    31    6   32 1
    32    7   33 1
    33    7   34 1
    34    7   35 1
    35    8   36 1
    36    8   37 1
    37    8   38 1
    38    9   39 1
    39    9   40 1
    40    9   41 1
    41   10   42 1
    42   10   43 1
    43   11   44 1
    44   11   45 1
    45   12   46 1
    46   13   47 1
    47   14   48 1
    48   16   49 1
    49   17   50 1
@<TRIPOS>MOLECULE
LIGAND
   50    49     0     0     0
SMALL
NO_CHARGES

@<TRIPOS>ATOM
      1 C1          9.0094   -4.5043    1.6394 C.2       1 <0>         0.0000
      2 C2          4.7609   -2.3304    1.0158 C.2       1 <0>         0.0000
      3 C3          1.6238   -2.1763    1.4428 C.2       1 <0>         0.0000
      4 C4          5.5916   -1.8934    4.5978 C.3       1 <0>         0.0000
      5 C5          7.0929    0.0222    4.0244 C.3       1 <0>         0.0000
      6 C6          2.6382   -4.8237   -1.2732 C.3       1 <0>         0.0000
      7 C7          1.4139   -5.1834    0.8654 C.3       1 <0>         0.0000
      8 C8          0.3871   -3.7862   -0.9377 C.3       1 <0>         0.0000
      9 C9          1.3383    0.0348    2.5199 C.3       1 <0>         0.0000
     10 C10         6.8665   -1.8668    2.3816 C.3       1 <0>         0.0000
     11 C11         6.8055   -3.7427    0.6616 C.3       1 <0>         0.0000
     12 C12         5.9953   -2.9363    1.6910 C.3       1 <0>         0.0000
     13 C13         2.4245   -2.8999    0.3599 C.3       1 <0>         0.0000
     14 C14         6.1374   -1.0321    3.4575 C.3       1 <0>         0.0000
     15 C15         1.7114   -4.1488   -0.2382 C.3       1 <0>         0.0000
     16 N1          1.9549   -0.8333    1.5455 N.am      1 <0>         0.0000
     17 N2          3.6959   -3.2182    0.9688 N.am      1 <0>         0.0000
     18 N3          7.7018   -4.6947    1.2608 N.am      1 <0>         0.0000
     19 O1          7.1560   -5.9460    1.4704 O.3       1 <0>         0.0000
     20 O2          9.7470   -5.3422    2.1497 O.2       1 <0>         0.0000
     21 O3          4.7482   -1.1914    0.5542 O.2       1 <0>         0.0000
     22 O4          0.7950   -2.7447    2.1522 O.2       1 <0>         0.0000
     23 H1          9.3809   -3.4829    1.4433 H         1 <0>         0.0000
     24 H2          6.4006   -2.4456    5.0885 H         1 <0>         0.0000
     25 H3          4.8609   -2.6219    4.2310 H         1 <0>         0.0000
     26 H4          5.1097   -1.2817    5.3659 H         1 <0>         0.0000
     27 H5          7.9623   -0.4436    4.5008 H         1 <0>         0.0000
     28 H6          7.4545    0.6861    3.2321 H         1 <0>         0.0000
     29 H7          6.5886    0.6429    4.7727 H         1 <0>         0.0000
     30 H8          2.8872   -4.1345   -2.0879 H         1 <0>         0.0000
     31 H9          2.1738   -5.7124   -1.7140 H         1 <0>         0.0000
     32 H10         3.5794   -5.1449   -0.8119 H         1 <0>         0.0000
     33 H11         0.7565   -4.7621    1.6349 H         1 <0>         0.0000
     34 H12         2.3282   -5.5113    1.3711 H         1 <0>         0.0000
     35 H13         0.9158   -6.0685    0.4541 H         1 <0>         0.0000
     36 H14        -0.3050   -3.3025   -0.2384 H         1 <0>         0.0000
     37 H15        -0.1179   -4.6740   -1.3329 H         1 <0>         0.0000
     38 H16         0.5457   -3.0900   -1.7676 H         1 <0>         0.0000
     39 H17         0.4402    0.4941    2.0989 H         1 <0>         0.0000
     40 H18         2.0331    0.8259    2.8147 H         1 <0>         0.0000
     41 H19         1.0580   -0.5350    3.4100 H         1 <0>         0.0000
     42 H20         7.7322   -2.3581    2.8457 H         1 <0>         0.0000
     43 H21         7.2705   -1.1813    1.6250 H         1 <0>         0.0000
     44 H22         6.1354   -4.3010   -0.0008 H         1 <0>         0.0000
     45 H23         7.4165   -3.0830    0.0367 H         1 <0>         0.0000
     46 H24         5.6479   -3.6501    2.4472 H         1 <0>         0.0000
     47 H25         2.6549   -2.1876   -0.4426 H         1 <0>         0.0000
     48 H26         5.2955   -0.5008    2.9986 H         1 <0>         0.0000
     49 H27         2.6527   -0.4488    0.9157 H         1 <0>         0.0000
     50 H28         3.8157   -4.1378    1.3829 H         1 <0>         0.0000
@<TRIPOS>BOND
     1    1   18 am
     2    1   20 2
     3    2   12 1
     4    2   17 am
     5    2   21 2
     6    3   13 1
     7    3   16 am
     8    3   22 2
     9    4   14 1
    10    5   14 1
    11    6   15 1
    12    7   15 1
    13    8   15 1
    14    9   16 1
    15   10   12 1
    16   10   14 1
    17   11   12 1
    18   11   18 1
    19   13   15 1
    20   13   17 1
    21   18   19 1
    22    1   23 1
    23    4   24 1
    24    4   25 1
    25    4   26 1
    26    5   27 1
    27    5   28 1
    28    5   29 1
    29    6   30 1
    30    6   31 1
    31    6   32 1
    32    7   33 1
    33    7   34 1
    34    7   35 1
    35    8   36 1
    36    8   37 1
    37    8   38 1
    38    9   39 1
    39    9   40 1
    40    9   41 1
    41   10   42 1
    42   10   43 1
    43   11   44 1
    44   11   45 1
    45   12   46 1
    46   13   47 1
    47   14   48 1
    48   16   49 1
    49   17   50 1
@<TRIPOS>MOLECULE
LIGAND
   50    49     0     0     0
SMALL
NO_CHARGES

@<TRIPOS>ATOM
      1 C1          7.8677   -2.4259    4.1911 C.2       1 <0>         0.0000
      2 C2          4.7609   -2.3304    1.0158 C.2       1 <0>         0.0000
      3 C3          1.4114   -2.9063    1.5049 C.2       1 <0>         0.0000
      4 C4          8.5547   -3.1178   -0.0742 C.3       1 <0>         0.0000
      5 C5          7.6782   -5.2829   -0.9666 C.3       1 <0>         0.0000
      6 C6          3.1857   -3.8003   -1.8813 C.3       1 <0>         0.0000
      7 C7          1.9543   -5.3076   -0.3278 C.3       1 <0>         0.0000
      8 C8          0.7370   -3.4626   -1.4991 C.3       1 <0>         0.0000
      9 C9          0.8046   -4.1182    3.5770 C.3       1 <0>         0.0000
     10 C10         6.4903   -4.2069    0.9698 C.3       1 <0>         0.0000
     11 C11         5.6912   -3.2135    3.1734 C.3       1 <0>         0.0000
     12 C12         5.9953   -2.9363    1.6910 C.3       1 <0>         0.0000
     13 C13         2.4245   -2.8999    0.3599 C.3       1 <0>         0.0000
     14 C14         7.2936   -3.9469   -0.3237 C.3       1 <0>         0.0000
     15 C15         2.0646   -3.8508   -0.8201 C.3       1 <0>         0.0000
     16 N1          1.6532   -3.9132    2.4277 N.am      1 <0>         0.0000
     17 N2          3.6959   -3.2182    0.9688 N.am      1 <0>         0.0000
     18 N3          6.8729   -3.3510    3.9817 N.am      1 <0>         0.0000
     19 O1          6.9987   -4.5727    4.6137 O.3       1 <0>         0.0000
     20 O2          7.9211   -1.2964    3.7137 O.2       1 <0>         0.0000
     21 O3          4.7482   -1.1914    0.5542 O.2       1 <0>         0.0000
     22 O4          0.4758   -2.1105    1.5728 O.2       1 <0>         0.0000
     23 H1          8.6698   -2.7848    4.8601 H         1 <0>         0.0000
     24 H2          9.2158   -3.6219    0.6392 H         1 <0>         0.0000
     25 H3          8.3079   -2.1320    0.3339 H         1 <0>         0.0000
     26 H4          9.1275   -2.9738   -0.9949 H         1 <0>         0.0000
     27 H5          8.3104   -5.8785   -0.2992 H         1 <0>         0.0000
     28 H6          6.7859   -5.8716   -1.2045 H         1 <0>         0.0000
     29 H7          8.2280   -5.1221   -1.9000 H         1 <0>         0.0000
     30 H8          3.3133   -2.7845   -2.2720 H         1 <0>         0.0000
     31 H9          2.9723   -4.4622   -2.7277 H         1 <0>         0.0000
     32 H10         4.1465   -4.1154   -1.4578 H         1 <0>         0.0000
     33 H11         1.1705   -5.4095    0.4319 H         1 <0>         0.0000
     34 H12         2.8879   -5.6535    0.1281 H         1 <0>         0.0000
     35 H13         1.7055   -5.9859   -1.1517 H         1 <0>         0.0000
     36 H14        -0.0909   -3.4848   -0.7807 H         1 <0>         0.0000
     37 H15         0.4812   -4.1517   -2.3109 H         1 <0>         0.0000
     38 H16         0.7762   -2.4505   -1.9146 H         1 <0>         0.0000
     39 H17         1.1692   -3.5298    4.4230 H         1 <0>         0.0000
     40 H18         0.7992   -5.1745    3.8593 H         1 <0>         0.0000
     41 H19        -0.2198   -3.8109    3.3501 H         1 <0>         0.0000
     42 H20         7.1160   -4.7876    1.6607 H         1 <0>         0.0000
     43 H21         5.6310   -4.8442    0.7228 H         1 <0>         0.0000
     44 H22         5.0986   -2.3982    3.6018 H         1 <0>         0.0000
     45 H23         5.1177   -4.1388    3.2917 H         1 <0>         0.0000
     46 H24         6.7931   -2.1847    1.6686 H         1 <0>         0.0000
     47 H25         2.5279   -1.8729   -0.0129 H         1 <0>         0.0000
     48 H26         6.6656   -3.4052   -1.0405 H         1 <0>         0.0000
     49 H27         2.4520   -4.5251    2.2903 H         1 <0>         0.0000
     50 H28         3.8157   -4.1378    1.3829 H         1 <0>         0.0000
@<TRIPOS>BOND
     1    1   18 am
     2    1   20 2
     3    2   12 1
     4    2   17 am
     5    2   21 2
     6    3   13 1
     7    3   16 am
     8    3   22 2
     9    4   14 1
    10    5   14 1
    11    6   15 1
    12    7   15 1
    13    8   15 1
    14    9   16 1
    15   10   12 1
    16   10   14 1
    17   11   12 1
    18   11   18 1
    19   13   15 1
    20   13   17 1
    21   18   19 1
    22    1   23 1
    23    4   24 1
    24    4   25 1
    25    4   26 1
    26    5   27 1
    27    5   28 1
    28    5   29 1
    29    6   30 1
    30    6   31 1
    31    6   32 1
    32    7   33 1
    33    7   34 1
    34    7   35 1
    35    8   36 1
    36    8   37 1
    37    8   38 1
    38    9   39 1
    39    9   40 1
    40    9   41 1
    41   10   42 1
    42   10   43 1
    43   11   44 1
    44   11   45 1
    45   12   46 1
    46   13   47 1
    47   14   48 1
    48   16   49 1
    49   17   50 1
@<TRIPOS>MOLECULE
LIGAND
   50    49     0     0     0
SMALL
NO_CHARGES

@<TRIPOS>ATOM
      1 C1          6.9731   -5.5477    0.1940 C.2       1 <0>         0.0000
      2 C2          4.7609   -2.3304    1.0158 C.2       1 <0>         0.0000
      3 C3          1.3743   -3.6105    1.2141 C.2       1 <0>         0.0000
      4 C4          4.8998   -3.3220    4.5808 C.3       1 <0>         0.0000
      5 C5          5.9126   -1.1117    5.1647 C.3       1 <0>         0.0000
      6 C6          3.5112   -2.5312   -1.8976 C.3       1 <0>         0.0000
      7 C7          2.5798   -4.7765   -1.3563 C.3       1 <0>         0.0000
      8 C8          1.0336   -2.8618   -1.8044 C.3       1 <0>         0.0000
      9 C9          0.6347   -3.9155    3.5573 C.3       1 <0>         0.0000
     10 C10         6.4405   -2.1272    2.9267 C.3       1 <0>         0.0000
     11 C11         7.1342   -3.0688    0.6654 C.3       1 <0>         0.0000
     12 C12         5.9953   -2.9363    1.6910 C.3       1 <0>         0.0000
     13 C13         2.4245   -2.8999    0.3599 C.3       1 <0>         0.0000
     14 C14         5.3645   -1.9750    4.0244 C.3       1 <0>         0.0000
     15 C15         2.3718   -3.2623   -1.1540 C.3       1 <0>         0.0000
     16 N1          1.5064   -3.3313    2.5663 N.am      1 <0>         0.0000
     17 N2          3.6959   -3.2182    0.9688 N.am      1 <0>         0.0000
     18 N3          7.0083   -4.2255   -0.1801 N.am      1 <0>         0.0000
     19 O1          6.9129   -3.9446   -1.5290 O.3       1 <0>         0.0000
     20 O2          7.0446   -5.9802    1.3404 O.2       1 <0>         0.0000
     21 O3          4.7482   -1.1914    0.5542 O.2       1 <0>         0.0000
     22 O4          0.5249   -4.3627    0.7389 O.2       1 <0>         0.0000
     23 H1          6.8694   -6.2440   -0.6570 H         1 <0>         0.0000
     24 H2          5.7423   -3.8772    5.0075 H         1 <0>         0.0000
     25 H3          4.4501   -3.9417    3.7978 H         1 <0>         0.0000
     26 H4          4.1642   -3.1925    5.3800 H         1 <0>         0.0000
     27 H5          6.7922   -1.5734    5.6261 H         1 <0>         0.0000
     28 H6          6.2016   -0.1209    4.7985 H         1 <0>         0.0000
     29 H7          5.1564   -0.9697    5.9440 H         1 <0>         0.0000
     30 H8          3.4182   -1.4447   -1.7906 H         1 <0>         0.0000
     31 H9          3.5120   -2.7653   -2.9677 H         1 <0>         0.0000
     32 H10         4.4918   -2.8203   -1.5020 H         1 <0>         0.0000
     33 H11         1.7979   -5.3538   -0.8491 H         1 <0>         0.0000
     34 H12         3.5395   -5.1121   -0.9494 H         1 <0>         0.0000
     35 H13         2.5489   -5.0416   -2.4191 H         1 <0>         0.0000
     36 H14         0.1926   -3.3589   -1.3070 H         1 <0>         0.0000
     37 H15         0.9978   -3.1431   -2.8622 H         1 <0>         0.0000
     38 H16         0.8573   -1.7835   -1.7352 H         1 <0>         0.0000
     39 H17        -0.2373   -3.2755    3.7147 H         1 <0>         0.0000
     40 H18         1.1644   -4.0284    4.5071 H         1 <0>         0.0000
     41 H19         0.2935   -4.9003    3.2271 H         1 <0>         0.0000
     42 H20         7.3251   -2.6069    3.3666 H         1 <0>         0.0000
     43 H21         6.7588   -1.1249    2.6110 H         1 <0>         0.0000
     44 H22         7.1645   -2.1910    0.0112 H         1 <0>         0.0000
     45 H23         8.1063   -3.1455    1.1636 H         1 <0>         0.0000
     46 H24         5.7385   -3.9535    2.0094 H         1 <0>         0.0000
     47 H25         2.3043   -1.8161    0.4837 H         1 <0>         0.0000
     48 H26         4.4913   -1.4577    3.6101 H         1 <0>         0.0000
     49 H27         2.2391   -2.6962    2.8684 H         1 <0>         0.0000
     50 H28         3.8157   -4.1378    1.3829 H         1 <0>         0.0000
@<TRIPOS>BOND
     1    1   18 am
     2    1   20 2
     3    2   12 1
     4    2   17 am
     5    2   21 2
     6    3   13 1
     7    3   16 am
     8    3   22 2
     9    4   14 1
    10    5   14 1
    11    6   15 1
    12    7   15 1
    13    8   15 1
    14    9   16 1
    15   10   12 1
    16   10   14 1
    17   11   12 1
    18   11   18 1
    19   13   15 1
    20   13   17 1
    21   18   19 1
    22    1   23 1
    23    4   24 1
    24    4   25 1
    25    4   26 1
    26    5   27 1
    27    5   28 1
    28    5   29 1
    29    6   30 1
    30    6   31 1
    31    6   32 1
    32    7   33 1
    33    7   34 1
    34    7   35 1
    35    8   36 1
    36    8   37 1
    37    8   38 1
    38    9   39 1
    39    9   40 1
    40    9   41 1
    41   10   42 1
    42   10   43 1
    43   11   44 1
    44   11   45 1
    45   12   46 1
    46   13   47 1
    47   14   48 1
    48   16   49 1
    49   17   50 1
@<TRIPOS>MOLECULE
LIGAND
   50    49     0     0     0
SMALL
NO_CHARGES

@<TRIPOS>ATOM
      1 C1          8.2041   -5.3564    0.7906 C.2       1 <0>         0.0000
      2 C2          4.7609   -2.3304    1.0158 C.2       1 <0>         0.0000
      3 C3          1.3743   -3.6105    1.2141 C.2       1 <0>         0.0000
      4 C4          4.3730   -2.6566    4.3349 C.3       1 <0>         0.0000
      5 C5          5.8590   -0.7386    4.9398 C.3       1 <0>         0.0000
      6 C6          2.9144   -2.0789   -1.9851 C.3       1 <0>         0.0000
      7 C7          3.2618   -4.4861   -1.4495 C.3       1 <0>         0.0000
      8 C8          0.9399   -3.5730   -1.6309 C.3       1 <0>         0.0000
      9 C9         -0.4638   -3.1822    2.8167 C.3       1 <0>         0.0000
     10 C10         6.4405   -2.1272    2.9267 C.3       1 <0>         0.0000
     11 C11         7.1342   -3.0688    0.6654 C.3       1 <0>         0.0000
     12 C12         5.9953   -2.9363    1.6910 C.3       1 <0>         0.0000
     13 C13         2.4245   -2.8999    0.3599 C.3       1 <0>         0.0000
     14 C14         5.2854   -1.5605    3.7815 C.3       1 <0>         0.0000
     15 C15         2.3718   -3.2623   -1.1540 C.3       1 <0>         0.0000
     16 N1          0.5772   -2.7269    1.9268 N.am      1 <0>         0.0000
     17 N2          3.6959   -3.2182    0.9688 N.am      1 <0>         0.0000
     18 N3          8.1489   -4.0093    1.0586 N.am      1 <0>         0.0000
     19 O1          9.1831   -3.4656    1.7950 O.3       1 <0>         0.0000
     20 O2          7.3782   -6.0047    0.1549 O.2       1 <0>         0.0000
     21 O3          4.7482   -1.1914    0.5542 O.2       1 <0>         0.0000
     22 O4          1.2756   -4.8354    1.2685 O.2       1 <0>         0.0000
     23 H1          9.0967   -5.8531    1.2102 H         1 <0>         0.0000
     24 H2          4.9413   -3.3577    4.9559 H         1 <0>         0.0000
     25 H3          3.9024   -3.2272    3.5274 H         1 <0>         0.0000
     26 H4          3.5825   -2.2387    4.9650 H         1 <0>         0.0000
     27 H5          6.4829   -1.3559    5.5951 H         1 <0>         0.0000
     28 H6          6.4731    0.0869    4.5647 H         1 <0>         0.0000
     29 H7          5.0558   -0.3059    5.5456 H         1 <0>         0.0000
     30 H8          2.3199   -1.1739   -1.8172 H         1 <0>         0.0000
     31 H9          2.8994   -2.2973   -3.0585 H         1 <0>         0.0000
     32 H10         3.9518   -1.8484   -1.7158 H         1 <0>         0.0000
     33 H11         2.9258   -5.3642   -0.8858 H         1 <0>         0.0000
     34 H12         4.3049   -4.3063   -1.1689 H         1 <0>         0.0000
     35 H13         3.2353   -4.7468   -2.5135 H         1 <0>         0.0000
     36 H14         0.5126   -4.4101   -1.0664 H         1 <0>         0.0000
     37 H15         0.9176   -3.8503   -2.6901 H         1 <0>         0.0000
     38 H16         0.2727   -2.7163   -1.4916 H         1 <0>         0.0000
     39 H17        -1.4067   -3.2811    2.2725 H         1 <0>         0.0000
     40 H18        -0.6020   -2.4684    3.6333 H         1 <0>         0.0000
     41 H19        -0.1993   -4.1542    3.2419 H         1 <0>         0.0000
     42 H20         7.0676   -2.7656    3.5633 H         1 <0>         0.0000
     43 H21         7.0772   -1.2922    2.6058 H         1 <0>         0.0000
     44 H22         6.7419   -3.4007   -0.3017 H         1 <0>         0.0000
     45 H23         7.6368   -2.1087    0.5083 H         1 <0>         0.0000
     46 H24         5.7385   -3.9535    2.0094 H         1 <0>         0.0000
     47 H25         2.3043   -1.8161    0.4837 H         1 <0>         0.0000
     48 H26         4.6755   -0.8860    3.1694 H         1 <0>         0.0000
     49 H27         0.7309   -1.7288    1.8190 H         1 <0>         0.0000
     50 H28         3.8157   -4.1378    1.3829 H         1 <0>         0.0000
@<TRIPOS>BOND
     1    1   18 am
     2    1   20 2
     3    2   12 1
     4    2   17 am
     5    2   21 2
     6    3   13 1
     7    3   16 am
     8    3   22 2
     9    4   14 1
    10    5   14 1
    11    6   15 1
    12    7   15 1
    13    8   15 1
    14    9   16 1
    15   10   12 1
    16   10   14 1
    17   11   12 1
    18   11   18 1
    19   13   15 1
    20   13   17 1
    21   18   19 1
    22    1   23 1
    23    4   24 1
    24    4   25 1
    25    4   26 1
    26    5   27 1
    27    5   28 1
    28    5   29 1
    29    6   30 1
    30    6   31 1
    31    6   32 1
    32    7   33 1
    33    7   34 1
    34    7   35 1
    35    8   36 1
    36    8   37 1
    37    8   38 1
    38    9   39 1
    39    9   40 1
    40    9   41 1
    41   10   42 1
    42   10   43 1
    43   11   44 1
    44   11   45 1
    45   12   46 1
    46   13   47 1
    47   14   48 1
    48   16   49 1
    49   17   50 1
@<TRIPOS>MOLECULE
LIGAND
   50    49     0     0     0
SMALL
NO_CHARGES

@<TRIPOS>ATOM
      1 C1          6.4496   -5.2442   -0.4265 C.2       1 <0>         0.0000
      2 C2          4.7609   -2.3304    1.0158 C.2       1 <0>         0.0000
      3 C3          1.4114   -2.9063    1.5049 C.2       1 <0>         0.0000
      4 C4          4.8998   -3.3220    4.5808 C.3       1 <0>         0.0000
      5 C5          5.9126   -1.1117    5.1647 C.3       1 <0>         0.0000
      6 C6          2.6765   -3.3019   -2.1277 C.3       1 <0>         0.0000
      7 C7          2.6544   -5.2554   -0.5834 C.3       1 <0>         0.0000
      8 C8          0.5425   -3.9869   -1.0173 C.3       1 <0>         0.0000
      9 C9         -0.0359   -1.4126    2.8483 C.3       1 <0>         0.0000
     10 C10         6.4405   -2.1272    2.9267 C.3       1 <0>         0.0000
     11 C11         7.1342   -3.0688    0.6654 C.3       1 <0>         0.0000
     12 C12         5.9953   -2.9363    1.6910 C.3       1 <0>         0.0000
     13 C13         2.4245   -2.8999    0.3599 C.3       1 <0>         0.0000
     14 C14         5.3645   -1.9750    4.0244 C.3       1 <0>         0.0000
     15 C15         2.0646   -3.8508   -0.8201 C.3       1 <0>         0.0000
     16 N1          0.9155   -1.6421    1.7876 N.am      1 <0>         0.0000
     17 N2          3.6959   -3.2182    0.9688 N.am      1 <0>         0.0000
     18 N3          6.8025   -3.9159   -0.4486 N.am      1 <0>         0.0000
     19 O1          6.8526   -3.2928   -1.6802 O.3       1 <0>         0.0000
     20 O2          6.1721   -5.9382   -1.4001 O.2       1 <0>         0.0000
     21 O3          4.7482   -1.1914    0.5542 O.2       1 <0>         0.0000
     22 O4          1.0981   -3.9285    2.1133 O.2       1 <0>         0.0000
     23 H1          6.4298   -5.6783    0.5888 H         1 <0>         0.0000
     24 H2          5.7423   -3.8772    5.0075 H         1 <0>         0.0000
     25 H3          4.4501   -3.9417    3.7978 H         1 <0>         0.0000
     26 H4          4.1642   -3.1925    5.3800 H         1 <0>         0.0000
     27 H5          6.7922   -1.5734    5.6261 H         1 <0>         0.0000
     28 H6          6.2016   -0.1209    4.7985 H         1 <0>         0.0000
     29 H7          5.1564   -0.9697    5.9440 H         1 <0>         0.0000
     30 H8          2.2940   -2.2998   -2.3517 H         1 <0>         0.0000
     31 H9          2.4502   -3.9477   -2.9831 H         1 <0>         0.0000
     32 H10         3.7681   -3.2311   -2.0551 H         1 <0>         0.0000
     33 H11         2.2564   -5.7011    0.3358 H         1 <0>         0.0000
     34 H12         3.7440   -5.2254   -0.4780 H         1 <0>         0.0000
     35 H13         2.4105   -5.9315   -1.4105 H         1 <0>         0.0000
     36 H14         0.0636   -4.3749   -0.1106 H         1 <0>         0.0000
     37 H15         0.3004   -4.6763   -1.8330 H         1 <0>         0.0000
     38 H16         0.0759   -3.0219   -1.2405 H         1 <0>         0.0000
     39 H17        -1.0554   -1.5084    2.4658 H         1 <0>         0.0000
     40 H18         0.0924   -0.4080    3.2604 H         1 <0>         0.0000
     41 H19         0.1090   -2.1415    3.6503 H         1 <0>         0.0000
     42 H20         7.3251   -2.6069    3.3666 H         1 <0>         0.0000
     43 H21         6.7588   -1.1249    2.6110 H         1 <0>         0.0000
     44 H22         7.3992   -2.0872    0.2584 H         1 <0>         0.0000
     45 H23         8.0331   -3.4907    1.1269 H         1 <0>         0.0000
     46 H24         5.7385   -3.9535    2.0094 H         1 <0>         0.0000
     47 H25         2.5279   -1.8729   -0.0129 H         1 <0>         0.0000
     48 H26         4.4913   -1.4577    3.6101 H         1 <0>         0.0000
     49 H27         1.2316   -0.8537    1.2310 H         1 <0>         0.0000
     50 H28         3.8157   -4.1378    1.3829 H         1 <0>         0.0000
@<TRIPOS>BOND
     1    1   18 am
     2    1   20 2
     3    2   12 1
     4    2   17 am
     5    2   21 2
     6    3   13 1
     7    3   16 am
     8    3   22 2
     9    4   14 1
    10    5   14 1
    11    6   15 1
    12    7   15 1
    13    8   15 1
    14    9   16 1
    15   10   12 1
    16   10   14 1
    17   11   12 1
    18   11   18 1
    19   13   15 1
    20   13   17 1
    21   18   19 1
    22    1   23 1
    23    4   24 1
    24    4   25 1
    25    4   26 1
    26    5   27 1
    27    5   28 1
    28    5   29 1
    29    6   30 1
    30    6   31 1
    31    6   32 1
    32    7   33 1
    33    7   34 1
    34    7   35 1
    35    8   36 1
    36    8   37 1
    37    8   38 1
    38    9   39 1
    39    9   40 1
    40    9   41 1
    41   10   42 1
    42   10   43 1
    43   11   44 1
    44   11   45 1
    45   12   46 1
    46   13   47 1
    47   14   48 1
    48   16   49 1
    49   17   50 1
@<TRIPOS>MOLECULE
LIGAND
   50    49     0     0     0
SMALL
NO_CHARGES

@<TRIPOS>ATOM
      1 C1          7.3043   -2.3507   -1.3895 C.2       1 <0>         0.0000
      2 C2          4.7609   -2.3304    1.0158 C.2       1 <0>         0.0000
      3 C3          1.4114   -2.9063    1.5049 C.2       1 <0>         0.0000
      4 C4          5.5916   -1.8934    4.5978 C.3       1 <0>         0.0000
      5 C5          7.0929    0.0222    4.0244 C.3       1 <0>         0.0000
      6 C6          3.1857   -3.8003   -1.8813 C.3       1 <0>         0.0000
      7 C7          1.9543   -5.3076   -0.3278 C.3       1 <0>         0.0000
      8 C8          0.7370   -3.4626   -1.4991 C.3       1 <0>         0.0000
      9 C9          0.8046   -4.1182    3.5770 C.3       1 <0>         0.0000
     10 C10         6.8665   -1.8668    2.3816 C.3       1 <0>         0.0000
     11 C11         6.8055   -3.7427    0.6616 C.3       1 <0>         0.0000
     12 C12         5.9953   -2.9363    1.6910 C.3       1 <0>         0.0000
     13 C13         2.4245   -2.8999    0.3599 C.3       1 <0>         0.0000
     14 C14         6.1374   -1.0321    3.4575 C.3       1 <0>         0.0000
     15 C15         2.0646   -3.8508   -0.8201 C.3       1 <0>         0.0000
     16 N1          1.6532   -3.9132    2.4277 N.am      1 <0>         0.0000
     17 N2          3.6959   -3.2182    0.9688 N.am      1 <0>         0.0000
     18 N3          7.6315   -2.9222   -0.1830 N.am      1 <0>         0.0000
     19 O1          8.9050   -2.6967    0.3017 O.3       1 <0>         0.0000
     20 O2          6.2260   -2.4438   -1.9685 O.2       1 <0>         0.0000
     21 O3          4.7482   -1.1914    0.5542 O.2       1 <0>         0.0000
     22 O4          0.4758   -2.1105    1.5728 O.2       1 <0>         0.0000
     23 H1          8.1259   -1.7633   -1.8363 H         1 <0>         0.0000
     24 H2          6.4006   -2.4456    5.0885 H         1 <0>         0.0000
     25 H3          4.8609   -2.6219    4.2310 H         1 <0>         0.0000
     26 H4          5.1097   -1.2817    5.3659 H         1 <0>         0.0000
     27 H5          7.9623   -0.4436    4.5008 H         1 <0>         0.0000
     28 H6          7.4545    0.6861    3.2321 H         1 <0>         0.0000
     29 H7          6.5886    0.6429    4.7727 H         1 <0>         0.0000
     30 H8          3.3133   -2.7845   -2.2720 H         1 <0>         0.0000
     31 H9          2.9723   -4.4622   -2.7277 H         1 <0>         0.0000
     32 H10         4.1465   -4.1154   -1.4578 H         1 <0>         0.0000
     33 H11         1.1705   -5.4095    0.4319 H         1 <0>         0.0000
     34 H12         2.8879   -5.6535    0.1281 H         1 <0>         0.0000
     35 H13         1.7055   -5.9859   -1.1517 H         1 <0>         0.0000
     36 H14        -0.0909   -3.4848   -0.7807 H         1 <0>         0.0000
     37 H15         0.4812   -4.1517   -2.3109 H         1 <0>         0.0000
     38 H16         0.7762   -2.4505   -1.9146 H         1 <0>         0.0000
     39 H17         1.1692   -3.5298    4.4230 H         1 <0>         0.0000
     40 H18         0.7992   -5.1745    3.8593 H         1 <0>         0.0000
     41 H19        -0.2198   -3.8109    3.3501 H         1 <0>         0.0000
     42 H20         7.7322   -2.3581    2.8457 H         1 <0>         0.0000
     43 H21         7.2705   -1.1813    1.6250 H         1 <0>         0.0000
     44 H22         7.4659   -4.4552    1.1672 H         1 <0>         0.0000
     45 H23         6.1454   -4.3134    0.0001 H         1 <0>         0.0000
     46 H24         5.6479   -3.6501    2.4472 H         1 <0>         0.0000
     47 H25         2.5279   -1.8729   -0.0129 H         1 <0>         0.0000
     48 H26         5.2955   -0.5008    2.9986 H         1 <0>         0.0000
     49 H27         2.4520   -4.5251    2.2903 H         1 <0>         0.0000
     50 H28         3.8157   -4.1378    1.3829 H         1 <0>         0.0000
@<TRIPOS>BOND
     1    1   18 am
     2    1   20 2
     3    2   12 1
     4    2   17 am
     5    2   21 2
     6    3   13 1
     7    3   16 am
     8    3   22 2
     9    4   14 1
    10    5   14 1
    11    6   15 1
    12    7   15 1
    13    8   15 1
    14    9   16 1
    15   10   12 1
    16   10   14 1
    17   11   12 1
    18   11   18 1
    19   13   15 1
    20   13   17 1
    21   18   19 1
    22    1   23 1
    23    4   24 1
    24    4   25 1
    25    4   26 1
    26    5   27 1
    27    5   28 1
    28    5   29 1
    29    6   30 1
    30    6   31 1
    31    6   32 1
    32    7   33 1
    33    7   34 1
    34    7   35 1
    35    8   36 1
    36    8   37 1
    37    8   38 1
    38    9   39 1
    39    9   40 1
    40    9   41 1
    41   10   42 1
    42   10   43 1
    43   11   44 1
    44   11   45 1
    45   12   46 1
    46   13   47 1
    47   14   48 1
    48   16   49 1
    49   17   50 1
@<TRIPOS>MOLECULE
LIGAND
   50    49     0     0     0
SMALL
NO_CHARGES

@<TRIPOS>ATOM
      1 C1          9.5089   -2.2247    2.1640 C.2       1 <0>         0.0000
      2 C2          4.7609   -2.3304    1.0158 C.2       1 <0>         0.0000
      3 C3          1.4114   -2.9063    1.5049 C.2       1 <0>         0.0000
      4 C4          5.4286   -5.0551    3.9022 C.3       1 <0>         0.0000
      5 C5          5.1681   -3.1669    5.5205 C.3       1 <0>         0.0000
      6 C6          3.1857   -3.8003   -1.8813 C.3       1 <0>         0.0000
      7 C7          1.9543   -5.3076   -0.3278 C.3       1 <0>         0.0000
      8 C8          0.7370   -3.4626   -1.4991 C.3       1 <0>         0.0000
      9 C9          0.8046   -4.1182    3.5770 C.3       1 <0>         0.0000
     10 C10         6.0212   -2.6662    3.2096 C.3       1 <0>         0.0000
     11 C11         7.2695   -2.4142    1.0053 C.3       1 <0>         0.0000
     12 C12         5.9953   -2.9363    1.6910 C.3       1 <0>         0.0000
     13 C13         2.4245   -2.8999    0.3599 C.3       1 <0>         0.0000
     14 C14         5.0884   -3.5706    4.0452 C.3       1 <0>         0.0000
     15 C15         2.0646   -3.8508   -0.8201 C.3       1 <0>         0.0000
     16 N1          1.6532   -3.9132    2.4277 N.am      1 <0>         0.0000
     17 N2          3.6959   -3.2182    0.9688 N.am      1 <0>         0.0000
     18 N3          8.4808   -2.9296    1.5848 N.am      1 <0>         0.0000
     19 O1          8.6000   -4.3050    1.5405 O.3       1 <0>         0.0000
     20 O2          9.5729   -1.0054    2.2897 O.2       1 <0>         0.0000
     21 O3          4.7482   -1.1914    0.5542 O.2       1 <0>         0.0000
     22 O4          0.4758   -2.1105    1.5728 O.2       1 <0>         0.0000
     23 H1         10.3290   -2.8651    2.5342 H         1 <0>         0.0000
     24 H2          6.4596   -5.2491    4.2175 H         1 <0>         0.0000
     25 H3          5.3256   -5.3883    2.8641 H         1 <0>         0.0000
     26 H4          4.7804   -5.6761    4.5273 H         1 <0>         0.0000
     27 H5          6.1838   -3.2884    5.9121 H         1 <0>         0.0000
     28 H6          4.8754   -2.1200    5.6540 H         1 <0>         0.0000
     29 H7          4.4947   -3.7797    6.1290 H         1 <0>         0.0000
     30 H8          3.3133   -2.7845   -2.2720 H         1 <0>         0.0000
     31 H9          2.9723   -4.4622   -2.7277 H         1 <0>         0.0000
     32 H10         4.1465   -4.1154   -1.4578 H         1 <0>         0.0000
     33 H11         1.1705   -5.4095    0.4319 H         1 <0>         0.0000
     34 H12         2.8879   -5.6535    0.1281 H         1 <0>         0.0000
     35 H13         1.7055   -5.9859   -1.1517 H         1 <0>         0.0000
     36 H14        -0.0909   -3.4848   -0.7807 H         1 <0>         0.0000
     37 H15         0.4812   -4.1517   -2.3109 H         1 <0>         0.0000
     38 H16         0.7762   -2.4505   -1.9146 H         1 <0>         0.0000
     39 H17         1.1692   -3.5298    4.4230 H         1 <0>         0.0000
     40 H18         0.7992   -5.1745    3.8593 H         1 <0>         0.0000
     41 H19        -0.2198   -3.8109    3.3501 H         1 <0>         0.0000
     42 H20         7.0493   -2.7891    3.5757 H         1 <0>         0.0000
     43 H21         5.7503   -1.6191    3.3985 H         1 <0>         0.0000
     44 H22         7.2745   -2.6901   -0.0546 H         1 <0>         0.0000
     45 H23         7.3301   -1.3226    1.0647 H         1 <0>         0.0000
     46 H24         5.9704   -4.0198    1.5260 H         1 <0>         0.0000
     47 H25         2.5279   -1.8729   -0.0129 H         1 <0>         0.0000
     48 H26         4.0519   -3.4254    3.7195 H         1 <0>         0.0000
     49 H27         2.4520   -4.5251    2.2903 H         1 <0>         0.0000
     50 H28         3.8157   -4.1378    1.3829 H         1 <0>         0.0000
@<TRIPOS>BOND
     1    1   18 am
     2    1   20 2
     3    2   12 1
     4    2   17 am
     5    2   21 2
     6    3   13 1
     7    3   16 am
     8    3   22 2
     9    4   14 1
    10    5   14 1
    11    6   15 1
    12    7   15 1
    13    8   15 1
    14    9   16 1
    15   10   12 1
    16   10   14 1
    17   11   12 1
    18   11   18 1
    19   13   15 1
    20   13   17 1
    21   18   19 1
    22    1   23 1
    23    4   24 1
    24    4   25 1
    25    4   26 1
    26    5   27 1
    27    5   28 1
    28    5   29 1
    29    6   30 1
    30    6   31 1
    31    6   32 1
    32    7   33 1
    33    7   34 1
    34    7   35 1
    35    8   36 1
    36    8   37 1
    37    8   38 1
    38    9   39 1
    39    9   40 1
    40    9   41 1
    41   10   42 1
    42   10   43 1
    43   11   44 1
    44   11   45 1
    45   12   46 1
    46   13   47 1
    47   14   48 1
    48   16   49 1
    49   17   50 1
@<TRIPOS>MOLECULE
LIGAND
   50    49     0     0     0
SMALL
NO_CHARGES

@<TRIPOS>ATOM
      1 C1          8.4860   -0.9360    0.5326 C.2       1 <0>         0.0000
      2 C2          4.7609   -2.3304    1.0158 C.2       1 <0>         0.0000
      3 C3          1.6238   -2.1763    1.4428 C.2       1 <0>         0.0000
      4 C4          4.8998   -3.3220    4.5808 C.3       1 <0>         0.0000
      5 C5          5.9126   -1.1117    5.1647 C.3       1 <0>         0.0000
      6 C6          2.6382   -4.8237   -1.2732 C.3       1 <0>         0.0000
      7 C7          1.4139   -5.1834    0.8654 C.3       1 <0>         0.0000
      8 C8          0.3871   -3.7862   -0.9377 C.3       1 <0>         0.0000
      9 C9          0.0532   -0.2939    1.7895 C.3       1 <0>         0.0000
     10 C10         6.4405   -2.1272    2.9267 C.3       1 <0>         0.0000
     11 C11         7.1342   -3.0688    0.6654 C.3       1 <0>         0.0000
     12 C12         5.9953   -2.9363    1.6910 C.3       1 <0>         0.0000
     13 C13         2.4245   -2.8999    0.3599 C.3       1 <0>         0.0000
     14 C14         5.3645   -1.9750    4.0244 C.3       1 <0>         0.0000
     15 C15         1.7114   -4.1488   -0.2382 C.3       1 <0>         0.0000
     16 N1          0.8675   -1.1285    0.9389 N.am      1 <0>         0.0000
     17 N2          3.6959   -3.2182    0.9688 N.am      1 <0>         0.0000
     18 N3          7.5271   -1.8131    0.0844 N.am      1 <0>         0.0000
     19 O1          6.8405   -1.4706   -1.0641 O.3       1 <0>         0.0000
     20 O2          8.7960    0.1303    0.0097 O.2       1 <0>         0.0000
     21 O3          4.7482   -1.1914    0.5542 O.2       1 <0>         0.0000
     22 O4          1.6741   -2.4892    2.6314 O.2       1 <0>         0.0000
     23 H1          8.9945   -1.2717    1.4536 H         1 <0>         0.0000
     24 H2          5.7423   -3.8772    5.0075 H         1 <0>         0.0000
     25 H3          4.4501   -3.9417    3.7978 H         1 <0>         0.0000
     26 H4          4.1642   -3.1925    5.3800 H         1 <0>         0.0000
     27 H5          6.7922   -1.5734    5.6261 H         1 <0>         0.0000
     28 H6          6.2016   -0.1209    4.7985 H         1 <0>         0.0000
     29 H7          5.1564   -0.9697    5.9440 H         1 <0>         0.0000
     30 H8          2.8872   -4.1345   -2.0879 H         1 <0>         0.0000
     31 H9          2.1738   -5.7124   -1.7140 H         1 <0>         0.0000
     32 H10         3.5794   -5.1449   -0.8119 H         1 <0>         0.0000
     33 H11         0.7565   -4.7621    1.6349 H         1 <0>         0.0000
     34 H12         2.3282   -5.5113    1.3711 H         1 <0>         0.0000
     35 H13         0.9158   -6.0685    0.4541 H         1 <0>         0.0000
     36 H14        -0.3050   -3.3025   -0.2384 H         1 <0>         0.0000
     37 H15        -0.1179   -4.6740   -1.3329 H         1 <0>         0.0000
     38 H16         0.5457   -3.0900   -1.7676 H         1 <0>         0.0000
     39 H17        -0.9522   -0.7139    1.8767 H         1 <0>         0.0000
     40 H18        -0.0213    0.7135    1.3710 H         1 <0>         0.0000
     41 H19         0.4945   -0.2269    2.7876 H         1 <0>         0.0000
     42 H20         7.3251   -2.6069    3.3666 H         1 <0>         0.0000
     43 H21         6.7588   -1.1249    2.6110 H         1 <0>         0.0000
     44 H22         8.0241   -3.5011    1.1351 H         1 <0>         0.0000
     45 H23         6.8444   -3.7236   -0.1630 H         1 <0>         0.0000
     46 H24         5.7385   -3.9535    2.0094 H         1 <0>         0.0000
     47 H25         2.6549   -2.1876   -0.4426 H         1 <0>         0.0000
     48 H26         4.4913   -1.4577    3.6101 H         1 <0>         0.0000
     49 H27         0.8872   -0.9429   -0.0594 H         1 <0>         0.0000
     50 H28         3.8157   -4.1378    1.3829 H         1 <0>         0.0000
@<TRIPOS>BOND
     1    1   18 am
     2    1   20 2
     3    2   12 1
     4    2   17 am
     5    2   21 2
     6    3   13 1
     7    3   16 am
     8    3   22 2
     9    4   14 1
    10    5   14 1
    11    6   15 1
    12    7   15 1
    13    8   15 1
    14    9   16 1
    15   10   12 1
    16   10   14 1
    17   11   12 1
    18   11   18 1
    19   13   15 1
    20   13   17 1
    21   18   19 1
    22    1   23 1
    23    4   24 1
    24    4   25 1
    25    4   26 1
    26    5   27 1
    27    5   28 1
    28    5   29 1
    29    6   30 1
    30    6   31 1
    31    6   32 1
    32    7   33 1
    33    7   34 1
    34    7   35 1
    35    8   36 1
    36    8   37 1
    37    8   38 1
    38    9   39 1
    39    9   40 1
    40    9   41 1
    41   10   42 1
    42   10   43 1
    43   11   44 1
    44   11   45 1
    45   12   46 1
    46   13   47 1
    47   14   48 1
    48   16   49 1
    49   17   50 1
@<TRIPOS>MOLECULE
LIGAND
   50    49     0     0     0
SMALL
NO_CHARGES

@<TRIPOS>ATOM
      1 C1          8.6027   -4.5615    0.9314 C.2       1 <0>         0.0000
      2 C2          4.7609   -2.3304    1.0158 C.2       1 <0>         0.0000
      3 C3          1.6238   -2.1763    1.4428 C.2       1 <0>         0.0000
      4 C4          5.4286   -5.0551    3.9022 C.3       1 <0>         0.0000
      5 C5          5.1681   -3.1669    5.5205 C.3       1 <0>         0.0000
      6 C6          2.6382   -4.8237   -1.2732 C.3       1 <0>         0.0000
      7 C7          1.4139   -5.1834    0.8654 C.3       1 <0>         0.0000
      8 C8          0.3871   -3.7862   -0.9377 C.3       1 <0>         0.0000
      9 C9          1.1427   -2.2044    3.8715 C.3       1 <0>         0.0000
     10 C10         6.0212   -2.6662    3.2096 C.3       1 <0>         0.0000
     11 C11         7.2695   -2.4142    1.0053 C.3       1 <0>         0.0000
     12 C12         5.9953   -2.9363    1.6910 C.3       1 <0>         0.0000
     13 C13         2.4245   -2.8999    0.3599 C.3       1 <0>         0.0000
     14 C14         5.0884   -3.5706    4.0452 C.3       1 <0>         0.0000
     15 C15         1.7114   -4.1488   -0.2382 C.3       1 <0>         0.0000
     16 N1          1.8198   -2.7177    2.7048 N.am      1 <0>         0.0000
     17 N2          3.6959   -3.2182    0.9688 N.am      1 <0>         0.0000
     18 N3          8.4249   -3.2358    1.2479 N.am      1 <0>         0.0000
     19 O1          9.4695   -2.5879    1.8778 O.3       1 <0>         0.0000
     20 O2          7.7876   -5.2906    0.3741 O.2       1 <0>         0.0000
     21 O3          4.7482   -1.1914    0.5542 O.2       1 <0>         0.0000
     22 O4          0.8744   -1.2316    1.1999 O.2       1 <0>         0.0000
     23 H1          9.5898   -4.9573    1.2289 H         1 <0>         0.0000
     24 H2          6.4596   -5.2491    4.2175 H         1 <0>         0.0000
     25 H3          5.3256   -5.3883    2.8641 H         1 <0>         0.0000
     26 H4          4.7804   -5.6761    4.5273 H         1 <0>         0.0000
     27 H5          6.1838   -3.2884    5.9121 H         1 <0>         0.0000
     28 H6          4.8754   -2.1200    5.6540 H         1 <0>         0.0000
     29 H7          4.4947   -3.7797    6.1290 H         1 <0>         0.0000
     30 H8          2.8872   -4.1345   -2.0879 H         1 <0>         0.0000
     31 H9          2.1738   -5.7124   -1.7140 H         1 <0>         0.0000
     32 H10         3.5794   -5.1449   -0.8119 H         1 <0>         0.0000
     33 H11         0.7565   -4.7621    1.6349 H         1 <0>         0.0000
     34 H12         2.3282   -5.5113    1.3711 H         1 <0>         0.0000
     35 H13         0.9158   -6.0685    0.4541 H         1 <0>         0.0000
     36 H14        -0.3050   -3.3025   -0.2384 H         1 <0>         0.0000
     37 H15        -0.1179   -4.6740   -1.3329 H         1 <0>         0.0000
     38 H16         0.5457   -3.0900   -1.7676 H         1 <0>         0.0000
     39 H17         1.7401   -1.4157    4.3360 H         1 <0>         0.0000
     40 H18         0.9874   -3.0042    4.6007 H         1 <0>         0.0000
     41 H19         0.1698   -1.7909    3.5925 H         1 <0>         0.0000
     42 H20         7.0493   -2.7891    3.5757 H         1 <0>         0.0000
     43 H21         5.7503   -1.6191    3.3985 H         1 <0>         0.0000
     44 H22         7.1283   -2.3661   -0.0797 H         1 <0>         0.0000
     45 H23         7.5195   -1.4064    1.3527 H         1 <0>         0.0000
     46 H24         5.9704   -4.0198    1.5260 H         1 <0>         0.0000
     47 H25         2.6549   -2.1876   -0.4426 H         1 <0>         0.0000
     48 H26         4.0519   -3.4254    3.7195 H         1 <0>         0.0000
     49 H27         2.4595   -3.4993    2.8111 H         1 <0>         0.0000
     50 H28         3.8157   -4.1378    1.3829 H         1 <0>         0.0000
@<TRIPOS>BOND
     1    1   18 am
     2    1   20 2
     3    2   12 1
     4    2   17 am
     5    2   21 2
     6    3   13 1
     7    3   16 am
     8    3   22 2
     9    4   14 1
    10    5   14 1
    11    6   15 1
    12    7   15 1
    13    8   15 1
    14    9   16 1
    15   10   12 1
    16   10   14 1
    17   11   12 1
    18   11   18 1
    19   13   15 1
    20   13   17 1
    21   18   19 1
    22    1   23 1
    23    4   24 1
    24    4   25 1
    25    4   26 1
    26    5   27 1
    27    5   28 1
    28    5   29 1
    29    6   30 1
    30    6   31 1
    31    6   32 1
    32    7   33 1
    33    7   34 1
    34    7   35 1
    35    8   36 1
    36    8   37 1
    37    8   38 1
    38    9   39 1
    39    9   40 1
    40    9   41 1
    41   10   42 1
    42   10   43 1
    43   11   44 1
    44   11   45 1
    45   12   46 1
    46   13   47 1
    47   14   48 1
    48   16   49 1
    49   17   50 1
@<TRIPOS>MOLECULE
LIGAND
   50    49     0     0     0
SMALL
NO_CHARGES

@<TRIPOS>ATOM
      1 C1          6.8958   -1.5680    4.6682 C.2       1 <0>         0.0000
      2 C2          4.7609   -2.3304    1.0158 C.2       1 <0>         0.0000
      3 C3          1.3743   -3.6105    1.2141 C.2       1 <0>         0.0000
      4 C4          8.5547   -3.1178   -0.0742 C.3       1 <0>         0.0000
      5 C5          7.6782   -5.2829   -0.9666 C.3       1 <0>         0.0000
      6 C6          3.5112   -2.5312   -1.8976 C.3       1 <0>         0.0000
      7 C7          2.5798   -4.7765   -1.3563 C.3       1 <0>         0.0000
      8 C8          1.0336   -2.8618   -1.8044 C.3       1 <0>         0.0000
      9 C9          0.6347   -3.9155    3.5573 C.3       1 <0>         0.0000
     10 C10         6.4903   -4.2069    0.9698 C.3       1 <0>         0.0000
     11 C11         5.6912   -3.2135    3.1734 C.3       1 <0>         0.0000
     12 C12         5.9953   -2.9363    1.6910 C.3       1 <0>         0.0000
     13 C13         2.4245   -2.8999    0.3599 C.3       1 <0>         0.0000
     14 C14         7.2936   -3.9469   -0.3237 C.3       1 <0>         0.0000
     15 C15         2.3718   -3.2623   -1.1540 C.3       1 <0>         0.0000
     16 N1          1.5064   -3.3313    2.5663 N.am      1 <0>         0.0000
     17 N2          3.6959   -3.2182    0.9688 N.am      1 <0>         0.0000
     18 N3          5.7903   -2.0436    4.0042 N.am      1 <0>         0.0000
     19 O1          4.6156   -1.3288    4.1337 O.3       1 <0>         0.0000
     20 O2          8.0156   -2.0707    4.6671 O.2       1 <0>         0.0000
     21 O3          4.7482   -1.1914    0.5542 O.2       1 <0>         0.0000
     22 O4          0.5249   -4.3627    0.7389 O.2       1 <0>         0.0000
     23 H1          6.7023   -0.6439    5.2411 H         1 <0>         0.0000
     24 H2          9.2158   -3.6219    0.6392 H         1 <0>         0.0000
     25 H3          8.3079   -2.1320    0.3339 H         1 <0>         0.0000
     26 H4          9.1275   -2.9738   -0.9949 H         1 <0>         0.0000
     27 H5          8.3104   -5.8785   -0.2992 H         1 <0>         0.0000
     28 H6          6.7859   -5.8716   -1.2045 H         1 <0>         0.0000
     29 H7          8.2280   -5.1221   -1.9000 H         1 <0>         0.0000
     30 H8          3.4182   -1.4447   -1.7906 H         1 <0>         0.0000
     31 H9          3.5120   -2.7653   -2.9677 H         1 <0>         0.0000
     32 H10         4.4918   -2.8203   -1.5020 H         1 <0>         0.0000
     33 H11         1.7979   -5.3538   -0.8491 H         1 <0>         0.0000
     34 H12         3.5395   -5.1121   -0.9494 H         1 <0>         0.0000
     35 H13         2.5489   -5.0416   -2.4191 H         1 <0>         0.0000
     36 H14         0.1926   -3.3589   -1.3070 H         1 <0>         0.0000
     37 H15         0.9978   -3.1431   -2.8622 H         1 <0>         0.0000
     38 H16         0.8573   -1.7835   -1.7352 H         1 <0>         0.0000
     39 H17        -0.2373   -3.2755    3.7147 H         1 <0>         0.0000
     40 H18         1.1644   -4.0284    4.5071 H         1 <0>         0.0000
     41 H19         0.2935   -4.9003    3.2271 H         1 <0>         0.0000
     42 H20         7.1160   -4.7876    1.6607 H         1 <0>         0.0000
     43 H21         5.6310   -4.8442    0.7228 H         1 <0>         0.0000
     44 H22         4.6761   -3.6079    3.2888 H         1 <0>         0.0000
     45 H23         6.3842   -3.9541    3.5861 H         1 <0>         0.0000
     46 H24         6.7931   -2.1847    1.6686 H         1 <0>         0.0000
     47 H25         2.3043   -1.8161    0.4837 H         1 <0>         0.0000
     48 H26         6.6656   -3.4052   -1.0405 H         1 <0>         0.0000
     49 H27         2.2391   -2.6962    2.8684 H         1 <0>         0.0000
     50 H28         3.8157   -4.1378    1.3829 H         1 <0>         0.0000
@<TRIPOS>BOND
     1    1   18 am
     2    1   20 2
     3    2   12 1
     4    2   17 am
     5    2   21 2
     6    3   13 1
     7    3   16 am
     8    3   22 2
     9    4   14 1
    10    5   14 1
    11    6   15 1
    12    7   15 1
    13    8   15 1
    14    9   16 1
    15   10   12 1
    16   10   14 1
    17   11   12 1
    18   11   18 1
    19   13   15 1
    20   13   17 1
    21   18   19 1
    22    1   23 1
    23    4   24 1
    24    4   25 1
    25    4   26 1
    26    5   27 1
    27    5   28 1
    28    5   29 1
    29    6   30 1
    30    6   31 1
    31    6   32 1
    32    7   33 1
    33    7   34 1
    34    7   35 1
    35    8   36 1
    36    8   37 1
    37    8   38 1
    38    9   39 1
    39    9   40 1
    40    9   41 1
    41   10   42 1
    42   10   43 1
    43   11   44 1
    44   11   45 1
    45   12   46 1
    46   13   47 1
    47   14   48 1
    48   16   49 1
    49   17   50 1
@<TRIPOS>MOLECULE
LIGAND
   50    49     0     0     0
SMALL
NO_CHARGES

@<TRIPOS>ATOM
      1 C1          7.4494   -6.0057    1.5877 C.2       1 <0>         0.0000
      2 C2          4.7609   -2.3304    1.0158 C.2       1 <0>         0.0000
      3 C3          1.4114   -2.9063    1.5049 C.2       1 <0>         0.0000
      4 C4          5.5916   -1.8934    4.5978 C.3       1 <0>         0.0000
      5 C5          7.0929    0.0222    4.0244 C.3       1 <0>         0.0000
      6 C6          1.9716   -3.0346   -2.1281 C.3       1 <0>         0.0000
      7 C7          3.1629   -4.9155   -1.0124 C.3       1 <0>         0.0000
      8 C8          0.7197   -4.5702   -0.6013 C.3       1 <0>         0.0000
      9 C9         -0.5781   -1.7107    2.3670 C.3       1 <0>         0.0000
     10 C10         6.8665   -1.8668    2.3816 C.3       1 <0>         0.0000
     11 C11         6.8055   -3.7427    0.6616 C.3       1 <0>         0.0000
     12 C12         5.9953   -2.9363    1.6910 C.3       1 <0>         0.0000
     13 C13         2.4245   -2.8999    0.3599 C.3       1 <0>         0.0000
     14 C14         6.1374   -1.0321    3.4575 C.3       1 <0>         0.0000
     15 C15         2.0646   -3.8508   -0.8201 C.3       1 <0>         0.0000
     16 N1          0.4604   -1.9038    1.3835 N.am      1 <0>         0.0000
     17 N2          3.6959   -3.2182    0.9688 N.am      1 <0>         0.0000
     18 N3          7.7018   -4.6947    1.2608 N.am      1 <0>         0.0000
     19 O1          8.9648   -4.2050    1.5307 O.3       1 <0>         0.0000
     20 O2          6.3911   -6.6048    1.4210 O.2       1 <0>         0.0000
     21 O3          4.7482   -1.1914    0.5542 O.2       1 <0>         0.0000
     22 O4          1.4623   -3.7076    2.4368 O.2       1 <0>         0.0000
     23 H1          8.3147   -6.5219    2.0397 H         1 <0>         0.0000
     24 H2          6.4006   -2.4456    5.0885 H         1 <0>         0.0000
     25 H3          4.8609   -2.6219    4.2310 H         1 <0>         0.0000
     26 H4          5.1097   -1.2817    5.3659 H         1 <0>         0.0000
     27 H5          7.9623   -0.4436    4.5008 H         1 <0>         0.0000
     28 H6          7.4545    0.6861    3.2321 H         1 <0>         0.0000
     29 H7          6.5886    0.6429    4.7727 H         1 <0>         0.0000
     30 H8          1.2033   -2.2569   -2.0537 H         1 <0>         0.0000
     31 H9          1.7252   -3.6703   -2.9855 H         1 <0>         0.0000
     32 H10         2.9231   -2.5396   -2.3546 H         1 <0>         0.0000
     33 H11         3.2779   -5.5312   -0.1127 H         1 <0>         0.0000
     34 H12         4.1381   -4.4603   -1.2147 H         1 <0>         0.0000
     35 H13         2.9214   -5.5874   -1.8436 H         1 <0>         0.0000
     36 H14         0.7392   -5.1646    0.3197 H         1 <0>         0.0000
     37 H15         0.4883   -5.2543   -1.4246 H         1 <0>         0.0000
     38 H16        -0.1084   -3.8600   -0.5090 H         1 <0>         0.0000
     39 H17        -1.4589   -2.3023    2.1044 H         1 <0>         0.0000
     40 H18        -0.8634   -0.6562    2.4133 H         1 <0>         0.0000
     41 H19        -0.2264   -2.0222    3.3542 H         1 <0>         0.0000
     42 H20         7.7322   -2.3581    2.8457 H         1 <0>         0.0000
     43 H21         7.2705   -1.1813    1.6250 H         1 <0>         0.0000
     44 H22         6.1354   -4.3010   -0.0008 H         1 <0>         0.0000
     45 H23         7.4165   -3.0830    0.0367 H         1 <0>         0.0000
     46 H24         5.6479   -3.6501    2.4472 H         1 <0>         0.0000
     47 H25         2.5279   -1.8729   -0.0129 H         1 <0>         0.0000
     48 H26         5.2955   -0.5008    2.9986 H         1 <0>         0.0000
     49 H27         0.4960   -1.2867    0.5777 H         1 <0>         0.0000
     50 H28         3.8157   -4.1378    1.3829 H         1 <0>         0.0000
@<TRIPOS>BOND
     1    1   18 am
     2    1   20 2
     3    2   12 1
     4    2   17 am
     5    2   21 2
     6    3   13 1
     7    3   16 am
     8    3   22 2
     9    4   14 1
    10    5   14 1
    11    6   15 1
    12    7   15 1
    13    8   15 1
    14    9   16 1
    15   10   12 1
    16   10   14 1
    17   11   12 1
    18   11   18 1
    19   13   15 1
    20   13   17 1
    21   18   19 1
    22    1   23 1
    23    4   24 1
    24    4   25 1
    25    4   26 1
    26    5   27 1
    27    5   28 1
    28    5   29 1
    29    6   30 1
    30    6   31 1
    31    6   32 1
    32    7   33 1
    33    7   34 1
    34    7   35 1
    35    8   36 1
    36    8   37 1
    37    8   38 1
    38    9   39 1
    39    9   40 1
    40    9   41 1
    41   10   42 1
    42   10   43 1
    43   11   44 1
    44   11   45 1
    45   12   46 1
    46   13   47 1
    47   14   48 1
    48   16   49 1
    49   17   50 1
@<TRIPOS>MOLECULE
LIGAND
   50    49     0     0     0
SMALL
NO_CHARGES

@<TRIPOS>ATOM
      1 C1          6.2748   -2.7400   -1.6898 C.2       1 <0>         0.0000
      2 C2          4.7609   -2.3304    1.0158 C.2       1 <0>         0.0000
      3 C3          1.6238   -2.1763    1.4428 C.2       1 <0>         0.0000
      4 C4          4.8998   -3.3220    4.5808 C.3       1 <0>         0.0000
      5 C5          5.9126   -1.1117    5.1647 C.3       1 <0>         0.0000
      6 C6          2.6382   -4.8237   -1.2732 C.3       1 <0>         0.0000
      7 C7          1.4139   -5.1834    0.8654 C.3       1 <0>         0.0000
      8 C8          0.3871   -3.7862   -0.9377 C.3       1 <0>         0.0000
      9 C9          1.3383    0.0348    2.5199 C.3       1 <0>         0.0000
     10 C10         6.4405   -2.1272    2.9267 C.3       1 <0>         0.0000
     11 C11         7.1342   -3.0688    0.6654 C.3       1 <0>         0.0000
     12 C12         5.9953   -2.9363    1.6910 C.3       1 <0>         0.0000
     13 C13         2.4245   -2.8999    0.3599 C.3       1 <0>         0.0000
     14 C14         5.3645   -1.9750    4.0244 C.3       1 <0>         0.0000
     15 C15         1.7114   -4.1488   -0.2382 C.3       1 <0>         0.0000
     16 N1          1.9549   -0.8333    1.5455 N.am      1 <0>         0.0000
     17 N2          3.6959   -3.2182    0.9688 N.am      1 <0>         0.0000
     18 N3          6.6876   -3.5101   -0.6286 N.am      1 <0>         0.0000
     19 O1          6.6825   -4.8807   -0.7990 O.3       1 <0>         0.0000
     20 O2          6.2145   -1.5144   -1.7175 O.2       1 <0>         0.0000
     21 O3          4.7482   -1.1914    0.5542 O.2       1 <0>         0.0000
     22 O4          0.7950   -2.7447    2.1522 O.2       1 <0>         0.0000
     23 H1          5.9811   -3.3308   -2.5754 H         1 <0>         0.0000
     24 H2          5.7423   -3.8772    5.0075 H         1 <0>         0.0000
     25 H3          4.4501   -3.9417    3.7978 H         1 <0>         0.0000
     26 H4          4.1642   -3.1925    5.3800 H         1 <0>         0.0000
     27 H5          6.7922   -1.5734    5.6261 H         1 <0>         0.0000
     28 H6          6.2016   -0.1209    4.7985 H         1 <0>         0.0000
     29 H7          5.1564   -0.9697    5.9440 H         1 <0>         0.0000
     30 H8          2.8872   -4.1345   -2.0879 H         1 <0>         0.0000
     31 H9          2.1738   -5.7124   -1.7140 H         1 <0>         0.0000
     32 H10         3.5794   -5.1449   -0.8119 H         1 <0>         0.0000
     33 H11         0.7565   -4.7621    1.6349 H         1 <0>         0.0000
     34 H12         2.3282   -5.5113    1.3711 H         1 <0>         0.0000
     35 H13         0.9158   -6.0685    0.4541 H         1 <0>         0.0000
     36 H14        -0.3050   -3.3025   -0.2384 H         1 <0>         0.0000
     37 H15        -0.1179   -4.6740   -1.3329 H         1 <0>         0.0000
     38 H16         0.5457   -3.0900   -1.7676 H         1 <0>         0.0000
     39 H17         0.4402    0.4941    2.0989 H         1 <0>         0.0000
     40 H18         2.0331    0.8259    2.8147 H         1 <0>         0.0000
     41 H19         1.0580   -0.5350    3.4100 H         1 <0>         0.0000
     42 H20         7.3251   -2.6069    3.3666 H         1 <0>         0.0000
     43 H21         6.7588   -1.1249    2.6110 H         1 <0>         0.0000
     44 H22         7.6361   -2.1057    0.5239 H         1 <0>         0.0000
     45 H23         7.8866   -3.7891    1.0029 H         1 <0>         0.0000
     46 H24         5.7385   -3.9535    2.0094 H         1 <0>         0.0000
     47 H25         2.6549   -2.1876   -0.4426 H         1 <0>         0.0000
     48 H26         4.4913   -1.4577    3.6101 H         1 <0>         0.0000
     49 H27         2.6527   -0.4488    0.9157 H         1 <0>         0.0000
     50 H28         3.8157   -4.1378    1.3829 H         1 <0>         0.0000
@<TRIPOS>BOND
     1    1   18 am
     2    1   20 2
     3    2   12 1
     4    2   17 am
     5    2   21 2
     6    3   13 1
     7    3   16 am
     8    3   22 2
     9    4   14 1
    10    5   14 1
    11    6   15 1
    12    7   15 1
    13    8   15 1
    14    9   16 1
    15   10   12 1
    16   10   14 1
    17   11   12 1
    18   11   18 1
    19   13   15 1
    20   13   17 1
    21   18   19 1
    22    1   23 1
    23    4   24 1
    24    4   25 1
    25    4   26 1
    26    5   27 1
    27    5   28 1
    28    5   29 1
    29    6   30 1
    30    6   31 1
    31    6   32 1
    32    7   33 1
    33    7   34 1
    34    7   35 1
    35    8   36 1
    36    8   37 1
    37    8   38 1
    38    9   39 1
    39    9   40 1
    40    9   41 1
    41   10   42 1
    42   10   43 1
    43   11   44 1
    44   11   45 1
    45   12   46 1
    46   13   47 1
    47   14   48 1
    48   16   49 1
    49   17   50 1
@<TRIPOS>MOLECULE
LIGAND
   50    49     0     0     0
SMALL
NO_CHARGES

@<TRIPOS>ATOM
      1 C1          7.5514   -0.8712   -0.5136 C.2       1 <0>         0.0000
      2 C2          4.7609   -2.3304    1.0158 C.2       1 <0>         0.0000
      3 C3          1.3743   -3.6105    1.2141 C.2       1 <0>         0.0000
      4 C4          4.8998   -3.3220    4.5808 C.3       1 <0>         0.0000
      5 C5          5.9126   -1.1117    5.1647 C.3       1 <0>         0.0000
      6 C6          3.5112   -2.5312   -1.8976 C.3       1 <0>         0.0000
      7 C7          2.5798   -4.7765   -1.3563 C.3       1 <0>         0.0000
      8 C8          1.0336   -2.8618   -1.8044 C.3       1 <0>         0.0000
      9 C9         -0.8899   -3.3247    2.1744 C.3       1 <0>         0.0000
     10 C10         6.4405   -2.1272    2.9267 C.3       1 <0>         0.0000
     11 C11         7.1342   -3.0688    0.6654 C.3       1 <0>         0.0000
     12 C12         5.9953   -2.9363    1.6910 C.3       1 <0>         0.0000
     13 C13         2.4245   -2.8999    0.3599 C.3       1 <0>         0.0000
     14 C14         5.3645   -1.9750    4.0244 C.3       1 <0>         0.0000
     15 C15         2.3718   -3.2623   -1.1540 C.3       1 <0>         0.0000
     16 N1          0.2223   -2.8565    1.3827 N.am      1 <0>         0.0000
     17 N2          3.6959   -3.2182    0.9688 N.am      1 <0>         0.0000
     18 N3          7.8323   -1.8342    0.4261 N.am      1 <0>         0.0000
     19 O1          8.9139   -1.6145    1.2565 O.3       1 <0>         0.0000
     20 O2          8.1707    0.1737   -0.6902 O.2       1 <0>         0.0000
     21 O3          4.7482   -1.1914    0.5542 O.2       1 <0>         0.0000
     22 O4          1.5569   -4.7218    1.7089 O.2       1 <0>         0.0000
     23 H1          6.6757   -1.1109   -1.1424 H         1 <0>         0.0000
     24 H2          5.7423   -3.8772    5.0075 H         1 <0>         0.0000
     25 H3          4.4501   -3.9417    3.7978 H         1 <0>         0.0000
     26 H4          4.1642   -3.1925    5.3800 H         1 <0>         0.0000
     27 H5          6.7922   -1.5734    5.6261 H         1 <0>         0.0000
     28 H6          6.2016   -0.1209    4.7985 H         1 <0>         0.0000
     29 H7          5.1564   -0.9697    5.9440 H         1 <0>         0.0000
     30 H8          3.4182   -1.4447   -1.7906 H         1 <0>         0.0000
     31 H9          3.5120   -2.7653   -2.9677 H         1 <0>         0.0000
     32 H10         4.4918   -2.8203   -1.5020 H         1 <0>         0.0000
     33 H11         1.7979   -5.3538   -0.8491 H         1 <0>         0.0000
     34 H12         3.5395   -5.1121   -0.9494 H         1 <0>         0.0000
     35 H13         2.5489   -5.0416   -2.4191 H         1 <0>         0.0000
     36 H14         0.1926   -3.3589   -1.3070 H         1 <0>         0.0000
     37 H15         0.9978   -3.1431   -2.8622 H         1 <0>         0.0000
     38 H16         0.8573   -1.7835   -1.7352 H         1 <0>         0.0000
     39 H17        -1.5882   -3.8849    1.5471 H         1 <0>         0.0000
     40 H18        -1.4189   -2.4783    2.6208 H         1 <0>         0.0000
     41 H19        -0.5348   -3.9781    2.9759 H         1 <0>         0.0000
     42 H20         7.3251   -2.6069    3.3666 H         1 <0>         0.0000
     43 H21         6.7588   -1.1249    2.6110 H         1 <0>         0.0000
     44 H22         7.8751   -3.7989    1.0081 H         1 <0>         0.0000
     45 H23         6.7546   -3.4103   -0.3032 H         1 <0>         0.0000
     46 H24         5.7385   -3.9535    2.0094 H         1 <0>         0.0000
     47 H25         2.3043   -1.8161    0.4837 H         1 <0>         0.0000
     48 H26         4.4913   -1.4577    3.6101 H         1 <0>         0.0000
     49 H27         0.1595   -1.9470    0.9352 H         1 <0>         0.0000
     50 H28         3.8157   -4.1378    1.3829 H         1 <0>         0.0000
@<TRIPOS>BOND
     1    1   18 am
     2    1   20 2
     3    2   12 1
     4    2   17 am
     5    2   21 2
     6    3   13 1
     7    3   16 am
     8    3   22 2
     9    4   14 1
    10    5   14 1
    11    6   15 1
    12    7   15 1
    13    8   15 1
    14    9   16 1
    15   10   12 1
    16   10   14 1
    17   11   12 1
    18   11   18 1
    19   13   15 1
    20   13   17 1
    21   18   19 1
    22    1   23 1
    23    4   24 1
    24    4   25 1
    25    4   26 1
    26    5   27 1
    27    5   28 1
    28    5   29 1
    29    6   30 1
    30    6   31 1
    31    6   32 1
    32    7   33 1
    33    7   34 1
    34    7   35 1
    35    8   36 1
    36    8   37 1
    37    8   38 1
    38    9   39 1
    39    9   40 1
    40    9   41 1
    41   10   42 1
    42   10   43 1
    43   11   44 1
    44   11   45 1
    45   12   46 1
    46   13   47 1
    47   14   48 1
    48   16   49 1
    49   17   50 1
@<TRIPOS>MOLECULE
LIGAND
   50    49     0     0     0
SMALL
NO_CHARGES

@<TRIPOS>ATOM
      1 C1          6.1780   -1.1790    4.5937 C.2       1 <0>         0.0000
      2 C2          4.7609   -2.3304    1.0158 C.2       1 <0>         0.0000
      3 C3          1.3743   -3.6105    1.2141 C.2       1 <0>         0.0000
      4 C4          7.9668   -2.9805   -0.7195 C.3       1 <0>         0.0000
      5 C5          7.2752   -5.3485   -1.1277 C.3       1 <0>         0.0000
      6 C6          3.5112   -2.5312   -1.8976 C.3       1 <0>         0.0000
      7 C7          2.5798   -4.7765   -1.3563 C.3       1 <0>         0.0000
      8 C8          1.0336   -2.8618   -1.8044 C.3       1 <0>         0.0000
      9 C9         -0.8899   -3.3247    2.1744 C.3       1 <0>         0.0000
     10 C10         6.4903   -4.2069    0.9698 C.3       1 <0>         0.0000
     11 C11         5.6912   -3.2135    3.1734 C.3       1 <0>         0.0000
     12 C12         5.9953   -2.9363    1.6910 C.3       1 <0>         0.0000
     13 C13         2.4245   -2.8999    0.3599 C.3       1 <0>         0.0000
     14 C14         6.8518   -4.0083   -0.5189 C.3       1 <0>         0.0000
     15 C15         2.3718   -3.2623   -1.1540 C.3       1 <0>         0.0000
     16 N1          0.2223   -2.8565    1.3827 N.am      1 <0>         0.0000
     17 N2          3.6959   -3.2182    0.9688 N.am      1 <0>         0.0000
     18 N3          5.3407   -2.0316    3.9142 N.am      1 <0>         0.0000
     19 O1          3.9906   -1.7407    3.9285 O.3       1 <0>         0.0000
     20 O2          5.8430   -0.1762    5.2172 O.2       1 <0>         0.0000
     21 O3          4.7482   -1.1914    0.5542 O.2       1 <0>         0.0000
     22 O4          1.5569   -4.7218    1.7089 O.2       1 <0>         0.0000
     23 H1          7.2418   -1.4708    4.5409 H         1 <0>         0.0000
     24 H2          8.8753   -3.2848   -0.1883 H         1 <0>         0.0000
     25 H3          7.6713   -1.9951   -0.3441 H         1 <0>         0.0000
     26 H4          8.2323   -2.8793   -1.7758 H         1 <0>         0.0000
     27 H5          8.1599   -5.7527   -0.6240 H         1 <0>         0.0000
     28 H6          6.4698   -6.0859   -1.0440 H         1 <0>         0.0000
     29 H7          7.5125   -5.2358   -2.1909 H         1 <0>         0.0000
     30 H8          3.4182   -1.4447   -1.7906 H         1 <0>         0.0000
     31 H9          3.5120   -2.7653   -2.9677 H         1 <0>         0.0000
     32 H10         4.4918   -2.8203   -1.5020 H         1 <0>         0.0000
     33 H11         1.7979   -5.3538   -0.8491 H         1 <0>         0.0000
     34 H12         3.5395   -5.1121   -0.9494 H         1 <0>         0.0000
     35 H13         2.5489   -5.0416   -2.4191 H         1 <0>         0.0000
     36 H14         0.1926   -3.3589   -1.3070 H         1 <0>         0.0000
     37 H15         0.9978   -3.1431   -2.8622 H         1 <0>         0.0000
     38 H16         0.8573   -1.7835   -1.7352 H         1 <0>         0.0000
     39 H17        -1.5882   -3.8849    1.5471 H         1 <0>         0.0000
     40 H18        -1.4189   -2.4783    2.6208 H         1 <0>         0.0000
     41 H19        -0.5348   -3.9781    2.9759 H         1 <0>         0.0000
     42 H20         7.3727   -4.5944    1.4964 H         1 <0>         0.0000
     43 H21         5.7222   -4.9884    1.0394 H         1 <0>         0.0000
     44 H22         4.8556   -3.9151    3.2682 H         1 <0>         0.0000
     45 H23         6.5563   -3.6574    3.6769 H         1 <0>         0.0000
     46 H24         6.7931   -2.1847    1.6686 H         1 <0>         0.0000
     47 H25         2.3043   -1.8161    0.4837 H         1 <0>         0.0000
     48 H26         5.9671   -3.6628   -1.0661 H         1 <0>         0.0000
     49 H27         0.1595   -1.9470    0.9352 H         1 <0>         0.0000
     50 H28         3.8157   -4.1378    1.3829 H         1 <0>         0.0000
@<TRIPOS>BOND
     1    1   18 am
     2    1   20 2
     3    2   12 1
     4    2   17 am
     5    2   21 2
     6    3   13 1
     7    3   16 am
     8    3   22 2
     9    4   14 1
    10    5   14 1
    11    6   15 1
    12    7   15 1
    13    8   15 1
    14    9   16 1
    15   10   12 1
    16   10   14 1
    17   11   12 1
    18   11   18 1
    19   13   15 1
    20   13   17 1
    21   18   19 1
    22    1   23 1
    23    4   24 1
    24    4   25 1
    25    4   26 1
    26    5   27 1
    27    5   28 1
    28    5   29 1
    29    6   30 1
    30    6   31 1
    31    6   32 1
    32    7   33 1
    33    7   34 1
    34    7   35 1
    35    8   36 1
    36    8   37 1
    37    8   38 1
    38    9   39 1
    39    9   40 1
    40    9   41 1
    41   10   42 1
    42   10   43 1
    43   11   44 1
    44   11   45 1
    45   12   46 1
    46   13   47 1
    47   14   48 1
    48   16   49 1
    49   17   50 1
@<TRIPOS>MOLECULE
LIGAND
   50    49     0     0     0
SMALL
NO_CHARGES

@<TRIPOS>ATOM
      1 C1          7.5793   -4.4967    4.2605 C.2       1 <0>         0.0000
      2 C2          4.7609   -2.3304    1.0158 C.2       1 <0>         0.0000
      3 C3          1.3743   -3.6105    1.2141 C.2       1 <0>         0.0000
      4 C4          8.5547   -3.1178   -0.0742 C.3       1 <0>         0.0000
      5 C5          7.6782   -5.2829   -0.9666 C.3       1 <0>         0.0000
      6 C6          3.5112   -2.5312   -1.8976 C.3       1 <0>         0.0000
      7 C7          2.5798   -4.7765   -1.3563 C.3       1 <0>         0.0000
      8 C8          1.0336   -2.8618   -1.8044 C.3       1 <0>         0.0000
      9 C9          0.6347   -3.9155    3.5573 C.3       1 <0>         0.0000
     10 C10         6.4903   -4.2069    0.9698 C.3       1 <0>         0.0000
     11 C11         5.6912   -3.2135    3.1734 C.3       1 <0>         0.0000
     12 C12         5.9953   -2.9363    1.6910 C.3       1 <0>         0.0000
     13 C13         2.4245   -2.8999    0.3599 C.3       1 <0>         0.0000
     14 C14         7.2936   -3.9469   -0.3237 C.3       1 <0>         0.0000
     15 C15         2.3718   -3.2623   -1.1540 C.3       1 <0>         0.0000
     16 N1          1.5064   -3.3313    2.5663 N.am      1 <0>         0.0000
     17 N2          3.6959   -3.2182    0.9688 N.am      1 <0>         0.0000
     18 N3          6.8729   -3.3510    3.9817 N.am      1 <0>         0.0000
     19 O1          7.3330   -2.1714    4.5335 O.3       1 <0>         0.0000
     20 O2          7.3180   -5.6268    3.8588 O.2       1 <0>         0.0000
     21 O3          4.7482   -1.1914    0.5542 O.2       1 <0>         0.0000
     22 O4          0.5249   -4.3627    0.7389 O.2       1 <0>         0.0000
     23 H1          8.4551   -4.3273    4.9116 H         1 <0>         0.0000
     24 H2          9.2158   -3.6219    0.6392 H         1 <0>         0.0000
     25 H3          8.3079   -2.1320    0.3339 H         1 <0>         0.0000
     26 H4          9.1275   -2.9738   -0.9949 H         1 <0>         0.0000
     27 H5          8.3104   -5.8785   -0.2992 H         1 <0>         0.0000
     28 H6          6.7859   -5.8716   -1.2045 H         1 <0>         0.0000
     29 H7          8.2280   -5.1221   -1.9000 H         1 <0>         0.0000
     30 H8          3.4182   -1.4447   -1.7906 H         1 <0>         0.0000
     31 H9          3.5120   -2.7653   -2.9677 H         1 <0>         0.0000
     32 H10         4.4918   -2.8203   -1.5020 H         1 <0>         0.0000
     33 H11         1.7979   -5.3538   -0.8491 H         1 <0>         0.0000
     34 H12         3.5395   -5.1121   -0.9494 H         1 <0>         0.0000
     35 H13         2.5489   -5.0416   -2.4191 H         1 <0>         0.0000
     36 H14         0.1926   -3.3589   -1.3070 H         1 <0>         0.0000
     37 H15         0.9978   -3.1431   -2.8622 H         1 <0>         0.0000
     38 H16         0.8573   -1.7835   -1.7352 H         1 <0>         0.0000
     39 H17        -0.2373   -3.2755    3.7147 H         1 <0>         0.0000
     40 H18         1.1644   -4.0284    4.5071 H         1 <0>         0.0000
     41 H19         0.2935   -4.9003    3.2271 H         1 <0>         0.0000
     42 H20         7.1160   -4.7876    1.6607 H         1 <0>         0.0000
     43 H21         5.6310   -4.8442    0.7228 H         1 <0>         0.0000
     44 H22         5.0986   -2.3982    3.6018 H         1 <0>         0.0000
     45 H23         5.1177   -4.1388    3.2917 H         1 <0>         0.0000
     46 H24         6.7931   -2.1847    1.6686 H         1 <0>         0.0000
     47 H25         2.3043   -1.8161    0.4837 H         1 <0>         0.0000
     48 H26         6.6656   -3.4052   -1.0405 H         1 <0>         0.0000
     49 H27         2.2391   -2.6962    2.8684 H         1 <0>         0.0000
     50 H28         3.8157   -4.1378    1.3829 H         1 <0>         0.0000
@<TRIPOS>BOND
     1    1   18 am
     2    1   20 2
     3    2   12 1
     4    2   17 am
     5    2   21 2
     6    3   13 1
     7    3   16 am
     8    3   22 2
     9    4   14 1
    10    5   14 1
    11    6   15 1
    12    7   15 1
    13    8   15 1
    14    9   16 1
    15   10   12 1
    16   10   14 1
    17   11   12 1
    18   11   18 1
    19   13   15 1
    20   13   17 1
    21   18   19 1
    22    1   23 1
    23    4   24 1
    24    4   25 1
    25    4   26 1
    26    5   27 1
    27    5   28 1
    28    5   29 1
    29    6   30 1
    30    6   31 1
    31    6   32 1
    32    7   33 1
    33    7   34 1
    34    7   35 1
    35    8   36 1
    36    8   37 1
    37    8   38 1
    38    9   39 1
    39    9   40 1
    40    9   41 1
    41   10   42 1
    42   10   43 1
    43   11   44 1
    44   11   45 1
    45   12   46 1
    46   13   47 1
    47   14   48 1
    48   16   49 1
    49   17   50 1
@<TRIPOS>MOLECULE
LIGAND
   50    49     0     0     0
SMALL
NO_CHARGES

@<TRIPOS>ATOM
      1 C1          8.0539   -3.2639    4.0726 C.2       1 <0>         0.0000
      2 C2          4.7609   -2.3304    1.0158 C.2       1 <0>         0.0000
      3 C3          1.4114   -2.9063    1.5049 C.2       1 <0>         0.0000
      4 C4          7.2107   -3.0163   -1.1753 C.3       1 <0>         0.0000
      5 C5          6.8616   -5.4922   -1.1583 C.3       1 <0>         0.0000
      6 C6          2.6765   -3.3019   -2.1277 C.3       1 <0>         0.0000
      7 C7          2.6544   -5.2554   -0.5834 C.3       1 <0>         0.0000
      8 C8          0.5425   -3.9869   -1.0173 C.3       1 <0>         0.0000
      9 C9         -0.5781   -1.7107    2.3670 C.3       1 <0>         0.0000
     10 C10         6.4903   -4.2069    0.9698 C.3       1 <0>         0.0000
     11 C11         5.6912   -3.2135    3.1734 C.3       1 <0>         0.0000
     12 C12         5.9953   -2.9363    1.6910 C.3       1 <0>         0.0000
     13 C13         2.4245   -2.8999    0.3599 C.3       1 <0>         0.0000
     14 C14         6.3914   -4.1580   -0.5710 C.3       1 <0>         0.0000
     15 C15         2.0646   -3.8508   -0.8201 C.3       1 <0>         0.0000
     16 N1          0.4604   -1.9038    1.3835 N.am      1 <0>         0.0000
     17 N2          3.6959   -3.2182    0.9688 N.am      1 <0>         0.0000
     18 N3          6.7994   -3.7930    3.8839 N.am      1 <0>         0.0000
     19 O1          6.5444   -5.0339    4.4343 O.3       1 <0>         0.0000
     20 O2          8.4549   -2.1805    3.6579 O.2       1 <0>         0.0000
     21 O3          4.7482   -1.1914    0.5542 O.2       1 <0>         0.0000
     22 O4          1.4623   -3.7076    2.4368 O.2       1 <0>         0.0000
     23 H1          8.7240   -3.9167    4.6595 H         1 <0>         0.0000
     24 H2          8.2684   -3.1133   -0.9070 H         1 <0>         0.0000
     25 H3          6.8602   -2.0427   -0.8170 H         1 <0>         0.0000
     26 H4          7.1560   -3.0193   -2.2678 H         1 <0>         0.0000
     27 H5          7.9069   -5.6943   -0.9006 H         1 <0>         0.0000
     28 H6          6.2523   -6.3201   -0.7806 H         1 <0>         0.0000
     29 H7          6.7764   -5.4889   -2.2501 H         1 <0>         0.0000
     30 H8          2.2940   -2.2998   -2.3517 H         1 <0>         0.0000
     31 H9          2.4502   -3.9477   -2.9831 H         1 <0>         0.0000
     32 H10         3.7681   -3.2311   -2.0551 H         1 <0>         0.0000
     33 H11         2.2564   -5.7011    0.3358 H         1 <0>         0.0000
     34 H12         3.7440   -5.2254   -0.4780 H         1 <0>         0.0000
     35 H13         2.4105   -5.9315   -1.4105 H         1 <0>         0.0000
     36 H14         0.0636   -4.3749   -0.1106 H         1 <0>         0.0000
     37 H15         0.3004   -4.6763   -1.8330 H         1 <0>         0.0000
     38 H16         0.0759   -3.0219   -1.2405 H         1 <0>         0.0000
     39 H17        -1.4589   -2.3023    2.1044 H         1 <0>         0.0000
     40 H18        -0.8634   -0.6562    2.4133 H         1 <0>         0.0000
     41 H19        -0.2264   -2.0222    3.3542 H         1 <0>         0.0000
     42 H20         7.5367   -4.3898    1.2486 H         1 <0>         0.0000
     43 H21         5.9202   -5.0746    1.3271 H         1 <0>         0.0000
     44 H22         5.4249   -2.2852    3.6898 H         1 <0>         0.0000
     45 H23         4.8500   -3.9063    3.2803 H         1 <0>         0.0000
     46 H24         6.7931   -2.1847    1.6686 H         1 <0>         0.0000
     47 H25         2.5279   -1.8729   -0.0129 H         1 <0>         0.0000
     48 H26         5.3446   -4.0194   -0.8651 H         1 <0>         0.0000
     49 H27         0.4960   -1.2867    0.5777 H         1 <0>         0.0000
     50 H28         3.8157   -4.1378    1.3829 H         1 <0>         0.0000
@<TRIPOS>BOND
     1    1   18 am
     2    1   20 2
     3    2   12 1
     4    2   17 am
     5    2   21 2
     6    3   13 1
     7    3   16 am
     8    3   22 2
     9    4   14 1
    10    5   14 1
    11    6   15 1
    12    7   15 1
    13    8   15 1
    14    9   16 1
    15   10   12 1
    16   10   14 1
    17   11   12 1
    18   11   18 1
    19   13   15 1
    20   13   17 1
    21   18   19 1
    22    1   23 1
    23    4   24 1
    24    4   25 1
    25    4   26 1
    26    5   27 1
    27    5   28 1
    28    5   29 1
    29    6   30 1
    30    6   31 1
    31    6   32 1
    32    7   33 1
    33    7   34 1
    34    7   35 1
    35    8   36 1
    36    8   37 1
    37    8   38 1
    38    9   39 1
    39    9   40 1
    40    9   41 1
    41   10   42 1
    42   10   43 1
    43   11   44 1
    44   11   45 1
    45   12   46 1
    46   13   47 1
    47   14   48 1
    48   16   49 1
    49   17   50 1
@<TRIPOS>MOLECULE
LIGAND
   50    49     0     0     0
SMALL
NO_CHARGES

@<TRIPOS>ATOM
      1 C1          4.0910   -1.4927    4.1069 C.2       1 <0>         0.0000
      2 C2          4.7609   -2.3304    1.0158 C.2       1 <0>         0.0000
      3 C3          1.4114   -2.9063    1.5049 C.2       1 <0>         0.0000
      4 C4          8.5547   -3.1178   -0.0742 C.3       1 <0>         0.0000
      5 C5          7.6782   -5.2829   -0.9666 C.3       1 <0>         0.0000
      6 C6          2.6765   -3.3019   -2.1277 C.3       1 <0>         0.0000
      7 C7          2.6544   -5.2554   -0.5834 C.3       1 <0>         0.0000
      8 C8          0.5425   -3.9869   -1.0173 C.3       1 <0>         0.0000
      9 C9         -0.0359   -1.4126    2.8483 C.3       1 <0>         0.0000
     10 C10         6.4903   -4.2069    0.9698 C.3       1 <0>         0.0000
     11 C11         5.6912   -3.2135    3.1734 C.3       1 <0>         0.0000
     12 C12         5.9953   -2.9363    1.6910 C.3       1 <0>         0.0000
     13 C13         2.4245   -2.8999    0.3599 C.3       1 <0>         0.0000
     14 C14         7.2936   -3.9469   -0.3237 C.3       1 <0>         0.0000
     15 C15         2.0646   -3.8508   -0.8201 C.3       1 <0>         0.0000
     16 N1          0.9155   -1.6421    1.7876 N.am      1 <0>         0.0000
     17 N2          3.6959   -3.2182    0.9688 N.am      1 <0>         0.0000
     18 N3          5.3407   -2.0316    3.9142 N.am      1 <0>         0.0000
     19 O1          6.4105   -1.3768    4.4927 O.3       1 <0>         0.0000
     20 O2          3.8281   -0.4791    4.7472 O.2       1 <0>         0.0000
     21 O3          4.7482   -1.1914    0.5542 O.2       1 <0>         0.0000
     22 O4          1.0981   -3.9285    2.1133 O.2       1 <0>         0.0000
     23 H1          3.2836   -2.0657    3.6176 H         1 <0>         0.0000
     24 H2          9.2158   -3.6219    0.6392 H         1 <0>         0.0000
     25 H3          8.3079   -2.1320    0.3339 H         1 <0>         0.0000
     26 H4          9.1275   -2.9738   -0.9949 H         1 <0>         0.0000
     27 H5          8.3104   -5.8785   -0.2992 H         1 <0>         0.0000
     28 H6          6.7859   -5.8716   -1.2045 H         1 <0>         0.0000
     29 H7          8.2280   -5.1221   -1.9000 H         1 <0>         0.0000
     30 H8          2.2940   -2.2998   -2.3517 H         1 <0>         0.0000
     31 H9          2.4502   -3.9477   -2.9831 H         1 <0>         0.0000
     32 H10         3.7681   -3.2311   -2.0551 H         1 <0>         0.0000
     33 H11         2.2564   -5.7011    0.3358 H         1 <0>         0.0000
     34 H12         3.7440   -5.2254   -0.4780 H         1 <0>         0.0000
     35 H13         2.4105   -5.9315   -1.4105 H         1 <0>         0.0000
     36 H14         0.0636   -4.3749   -0.1106 H         1 <0>         0.0000
     37 H15         0.3004   -4.6763   -1.8330 H         1 <0>         0.0000
     38 H16         0.0759   -3.0219   -1.2405 H         1 <0>         0.0000
     39 H17        -1.0554   -1.5084    2.4658 H         1 <0>         0.0000
     40 H18         0.0924   -0.4080    3.2604 H         1 <0>         0.0000
     41 H19         0.1090   -2.1415    3.6503 H         1 <0>         0.0000
     42 H20         7.1160   -4.7876    1.6607 H         1 <0>         0.0000
     43 H21         5.6310   -4.8442    0.7228 H         1 <0>         0.0000
     44 H22         4.8556   -3.9151    3.2682 H         1 <0>         0.0000
     45 H23         6.5563   -3.6574    3.6769 H         1 <0>         0.0000
     46 H24         6.7931   -2.1847    1.6686 H         1 <0>         0.0000
     47 H25         2.5279   -1.8729   -0.0129 H         1 <0>         0.0000
     48 H26         6.6656   -3.4052   -1.0405 H         1 <0>         0.0000
     49 H27         1.2316   -0.8537    1.2310 H         1 <0>         0.0000
     50 H28         3.8157   -4.1378    1.3829 H         1 <0>         0.0000
@<TRIPOS>BOND
     1    1   18 am
     2    1   20 2
     3    2   12 1
     4    2   17 am
     5    2   21 2
     6    3   13 1
     7    3   16 am
     8    3   22 2
     9    4   14 1
    10    5   14 1
    11    6   15 1
    12    7   15 1
    13    8   15 1
    14    9   16 1
    15   10   12 1
    16   10   14 1
    17   11   12 1
    18   11   18 1
    19   13   15 1
    20   13   17 1
    21   18   19 1
    22    1   23 1
    23    4   24 1
    24    4   25 1
    25    4   26 1
    26    5   27 1
    27    5   28 1
    28    5   29 1
    29    6   30 1
    30    6   31 1
    31    6   32 1
    32    7   33 1
    33    7   34 1
    34    7   35 1
    35    8   36 1
    36    8   37 1
    37    8   38 1
    38    9   39 1
    39    9   40 1
    40    9   41 1
    41   10   42 1
    42   10   43 1
    43   11   44 1
    44   11   45 1
    45   12   46 1
    46   13   47 1
    47   14   48 1
    48   16   49 1
    49   17   50 1
@<TRIPOS>MOLECULE
LIGAND
   50    49     0     0     0
SMALL
NO_CHARGES

@<TRIPOS>ATOM
      1 C1          7.6891   -2.5737   -1.4831 C.2       1 <0>         0.0000
      2 C2          4.7609   -2.3304    1.0158 C.2       1 <0>         0.0000
      3 C3          1.4114   -2.9063    1.5049 C.2       1 <0>         0.0000
      4 C4          5.4286   -5.0551    3.9022 C.3       1 <0>         0.0000
      5 C5          5.1681   -3.1669    5.5205 C.3       1 <0>         0.0000
      6 C6          3.1857   -3.8003   -1.8813 C.3       1 <0>         0.0000
      7 C7          1.9543   -5.3076   -0.3278 C.3       1 <0>         0.0000
      8 C8          0.7370   -3.4626   -1.4991 C.3       1 <0>         0.0000
      9 C9          0.8046   -4.1182    3.5770 C.3       1 <0>         0.0000
     10 C10         6.0212   -2.6662    3.2096 C.3       1 <0>         0.0000
     11 C11         7.2695   -2.4142    1.0053 C.3       1 <0>         0.0000
     12 C12         5.9953   -2.9363    1.6910 C.3       1 <0>         0.0000
     13 C13         2.4245   -2.8999    0.3599 C.3       1 <0>         0.0000
     14 C14         5.0884   -3.5706    4.0452 C.3       1 <0>         0.0000
     15 C15         2.0646   -3.8508   -0.8201 C.3       1 <0>         0.0000
     16 N1          1.6532   -3.9132    2.4277 N.am      1 <0>         0.0000
     17 N2          3.6959   -3.2182    0.9688 N.am      1 <0>         0.0000
     18 N3          7.5808   -3.1022   -0.2189 N.am      1 <0>         0.0000
     19 O1          7.7921   -4.4599   -0.0781 O.3       1 <0>         0.0000
     20 O2          7.5355   -1.3961   -1.7935 O.2       1 <0>         0.0000
     21 O3          4.7482   -1.1914    0.5542 O.2       1 <0>         0.0000
     22 O4          0.4758   -2.1105    1.5728 O.2       1 <0>         0.0000
     23 H1          7.9398   -3.3233   -2.2544 H         1 <0>         0.0000
     24 H2          6.4596   -5.2491    4.2175 H         1 <0>         0.0000
     25 H3          5.3256   -5.3883    2.8641 H         1 <0>         0.0000
     26 H4          4.7804   -5.6761    4.5273 H         1 <0>         0.0000
     27 H5          6.1838   -3.2884    5.9121 H         1 <0>         0.0000
     28 H6          4.8754   -2.1200    5.6540 H         1 <0>         0.0000
     29 H7          4.4947   -3.7797    6.1290 H         1 <0>         0.0000
     30 H8          3.3133   -2.7845   -2.2720 H         1 <0>         0.0000
     31 H9          2.9723   -4.4622   -2.7277 H         1 <0>         0.0000
     32 H10         4.1465   -4.1154   -1.4578 H         1 <0>         0.0000
     33 H11         1.1705   -5.4095    0.4319 H         1 <0>         0.0000
     34 H12         2.8879   -5.6535    0.1281 H         1 <0>         0.0000
     35 H13         1.7055   -5.9859   -1.1517 H         1 <0>         0.0000
     36 H14        -0.0909   -3.4848   -0.7807 H         1 <0>         0.0000
     37 H15         0.4812   -4.1517   -2.3109 H         1 <0>         0.0000
     38 H16         0.7762   -2.4505   -1.9146 H         1 <0>         0.0000
     39 H17         1.1692   -3.5298    4.4230 H         1 <0>         0.0000
     40 H18         0.7992   -5.1745    3.8593 H         1 <0>         0.0000
     41 H19        -0.2198   -3.8109    3.3501 H         1 <0>         0.0000
     42 H20         7.0493   -2.7891    3.5757 H         1 <0>         0.0000
     43 H21         5.7503   -1.6191    3.3985 H         1 <0>         0.0000
     44 H22         7.1657   -1.3514    0.7623 H         1 <0>         0.0000
     45 H23         8.1413   -2.5219    1.6590 H         1 <0>         0.0000
     46 H24         5.9704   -4.0198    1.5260 H         1 <0>         0.0000
     47 H25         2.5279   -1.8729   -0.0129 H         1 <0>         0.0000
     48 H26         4.0519   -3.4254    3.7195 H         1 <0>         0.0000
     49 H27         2.4520   -4.5251    2.2903 H         1 <0>         0.0000
     50 H28         3.8157   -4.1378    1.3829 H         1 <0>         0.0000
@<TRIPOS>BOND
     1    1   18 am
     2    1   20 2
     3    2   12 1
     4    2   17 am
     5    2   21 2
     6    3   13 1
     7    3   16 am
     8    3   22 2
     9    4   14 1
    10    5   14 1
    11    6   15 1
    12    7   15 1
    13    8   15 1
    14    9   16 1
    15   10   12 1
    16   10   14 1
    17   11   12 1
    18   11   18 1
    19   13   15 1
    20   13   17 1
    21   18   19 1
    22    1   23 1
    23    4   24 1
    24    4   25 1
    25    4   26 1
    26    5   27 1
    27    5   28 1
    28    5   29 1
    29    6   30 1
    30    6   31 1
    31    6   32 1
    32    7   33 1
    33    7   34 1
    34    7   35 1
    35    8   36 1
    36    8   37 1
    37    8   38 1
    38    9   39 1
    39    9   40 1
    40    9   41 1
    41   10   42 1
    42   10   43 1
    43   11   44 1
    44   11   45 1
    45   12   46 1
    46   13   47 1
    47   14   48 1
    48   16   49 1
    49   17   50 1
@<TRIPOS>MOLECULE
LIGAND
   50    49     0     0     0
SMALL
NO_CHARGES

@<TRIPOS>ATOM
      1 C1          7.4494   -6.0057    1.5877 C.2       1 <0>         0.0000
      2 C2          4.7609   -2.3304    1.0158 C.2       1 <0>         0.0000
      3 C3          1.3743   -3.6105    1.2141 C.2       1 <0>         0.0000
      4 C4          5.5916   -1.8934    4.5978 C.3       1 <0>         0.0000
      5 C5          7.0929    0.0222    4.0244 C.3       1 <0>         0.0000
      6 C6          2.1676   -1.9758   -1.9839 C.3       1 <0>         0.0000
      7 C7          3.7004   -3.9015   -1.6047 C.3       1 <0>         0.0000
      8 C8          1.2246   -4.2374   -1.4817 C.3       1 <0>         0.0000
      9 C9         -0.8899   -3.3247    2.1744 C.3       1 <0>         0.0000
     10 C10         6.8665   -1.8668    2.3816 C.3       1 <0>         0.0000
     11 C11         6.8055   -3.7427    0.6616 C.3       1 <0>         0.0000
     12 C12         5.9953   -2.9363    1.6910 C.3       1 <0>         0.0000
     13 C13         2.4245   -2.8999    0.3599 C.3       1 <0>         0.0000
     14 C14         6.1374   -1.0321    3.4575 C.3       1 <0>         0.0000
     15 C15         2.3718   -3.2623   -1.1540 C.3       1 <0>         0.0000
     16 N1          0.2223   -2.8565    1.3827 N.am      1 <0>         0.0000
     17 N2          3.6959   -3.2182    0.9688 N.am      1 <0>         0.0000
     18 N3          7.7018   -4.6947    1.2608 N.am      1 <0>         0.0000
     19 O1          8.9648   -4.2050    1.5307 O.3       1 <0>         0.0000
     20 O2          6.3911   -6.6048    1.4210 O.2       1 <0>         0.0000
     21 O3          4.7482   -1.1914    0.5542 O.2       1 <0>         0.0000
     22 O4          1.5569   -4.7218    1.7089 O.2       1 <0>         0.0000
     23 H1          8.3147   -6.5219    2.0397 H         1 <0>         0.0000
     24 H2          6.4006   -2.4456    5.0885 H         1 <0>         0.0000
     25 H3          4.8609   -2.6219    4.2310 H         1 <0>         0.0000
     26 H4          5.1097   -1.2817    5.3659 H         1 <0>         0.0000
     27 H5          7.9623   -0.4436    4.5008 H         1 <0>         0.0000
     28 H6          7.4545    0.6861    3.2321 H         1 <0>         0.0000
     29 H7          6.5886    0.6429    4.7727 H         1 <0>         0.0000
     30 H8          1.2340   -1.4727   -1.7080 H         1 <0>         0.0000
     31 H9          2.1309   -2.1882   -3.0579 H         1 <0>         0.0000
     32 H10         2.9869   -1.2657   -1.8218 H         1 <0>         0.0000
     33 H11         3.9033   -4.8245   -1.0490 H         1 <0>         0.0000
     34 H12         4.5507   -3.2327   -1.4344 H         1 <0>         0.0000
     35 H13         3.6755   -4.1564   -2.6701 H         1 <0>         0.0000
     36 H14         1.3286   -5.1690   -0.9131 H         1 <0>         0.0000
     37 H15         1.2119   -4.5047   -2.5437 H         1 <0>         0.0000
     38 H16         0.2480   -3.8124   -1.2284 H         1 <0>         0.0000
     39 H17        -1.5882   -3.8849    1.5471 H         1 <0>         0.0000
     40 H18        -1.4189   -2.4783    2.6208 H         1 <0>         0.0000
     41 H19        -0.5348   -3.9781    2.9759 H         1 <0>         0.0000
     42 H20         7.7322   -2.3581    2.8457 H         1 <0>         0.0000
     43 H21         7.2705   -1.1813    1.6250 H         1 <0>         0.0000
     44 H22         6.1354   -4.3010   -0.0008 H         1 <0>         0.0000
     45 H23         7.4165   -3.0830    0.0367 H         1 <0>         0.0000
     46 H24         5.6479   -3.6501    2.4472 H         1 <0>         0.0000
     47 H25         2.3043   -1.8161    0.4837 H         1 <0>         0.0000
     48 H26         5.2955   -0.5008    2.9986 H         1 <0>         0.0000
     49 H27         0.1595   -1.9470    0.9352 H         1 <0>         0.0000
     50 H28         3.8157   -4.1378    1.3829 H         1 <0>         0.0000
@<TRIPOS>BOND
     1    1   18 am
     2    1   20 2
     3    2   12 1
     4    2   17 am
     5    2   21 2
     6    3   13 1
     7    3   16 am
     8    3   22 2
     9    4   14 1
    10    5   14 1
    11    6   15 1
    12    7   15 1
    13    8   15 1
    14    9   16 1
    15   10   12 1
    16   10   14 1
    17   11   12 1
    18   11   18 1
    19   13   15 1
    20   13   17 1
    21   18   19 1
    22    1   23 1
    23    4   24 1
    24    4   25 1
    25    4   26 1
    26    5   27 1
    27    5   28 1
    28    5   29 1
    29    6   30 1
    30    6   31 1
    31    6   32 1
    32    7   33 1
    33    7   34 1
    34    7   35 1
    35    8   36 1
    36    8   37 1
    37    8   38 1
    38    9   39 1
    39    9   40 1
    40    9   41 1
    41   10   42 1
    42   10   43 1
    43   11   44 1
    44   11   45 1
    45   12   46 1
    46   13   47 1
    47   14   48 1
    48   16   49 1
    49   17   50 1
@<TRIPOS>MOLECULE
LIGAND
   50    49     0     0     0
SMALL
NO_CHARGES

@<TRIPOS>ATOM
      1 C1          7.6891   -2.5737   -1.4831 C.2       1 <0>         0.0000
      2 C2          4.7609   -2.3304    1.0158 C.2       1 <0>         0.0000
      3 C3          1.6238   -2.1763    1.4428 C.2       1 <0>         0.0000
      4 C4          5.4286   -5.0551    3.9022 C.3       1 <0>         0.0000
      5 C5          5.1681   -3.1669    5.5205 C.3       1 <0>         0.0000
      6 C6          2.6382   -4.8237   -1.2732 C.3       1 <0>         0.0000
      7 C7          1.4139   -5.1834    0.8654 C.3       1 <0>         0.0000
      8 C8          0.3871   -3.7862   -0.9377 C.3       1 <0>         0.0000
      9 C9          0.7109    0.0436    2.0502 C.3       1 <0>         0.0000
     10 C10         6.0212   -2.6662    3.2096 C.3       1 <0>         0.0000
     11 C11         7.2695   -2.4142    1.0053 C.3       1 <0>         0.0000
     12 C12         5.9953   -2.9363    1.6910 C.3       1 <0>         0.0000
     13 C13         2.4245   -2.8999    0.3599 C.3       1 <0>         0.0000
     14 C14         5.0884   -3.5706    4.0452 C.3       1 <0>         0.0000
     15 C15         1.7114   -4.1488   -0.2382 C.3       1 <0>         0.0000
     16 N1          1.4216   -0.8351    1.1525 N.am      1 <0>         0.0000
     17 N2          3.6959   -3.2182    0.9688 N.am      1 <0>         0.0000
     18 N3          7.5808   -3.1022   -0.2189 N.am      1 <0>         0.0000
     19 O1          7.7921   -4.4599   -0.0781 O.3       1 <0>         0.0000
     20 O2          7.9573   -3.1928   -2.5085 O.2       1 <0>         0.0000
     21 O3          4.7482   -1.1914    0.5542 O.2       1 <0>         0.0000
     22 O4          1.2284   -2.7340    2.4655 O.2       1 <0>         0.0000
     23 H1          7.5080   -1.4850   -1.5228 H         1 <0>         0.0000
     24 H2          6.4596   -5.2491    4.2175 H         1 <0>         0.0000
     25 H3          5.3256   -5.3883    2.8641 H         1 <0>         0.0000
     26 H4          4.7804   -5.6761    4.5273 H         1 <0>         0.0000
     27 H5          6.1838   -3.2884    5.9121 H         1 <0>         0.0000
     28 H6          4.8754   -2.1200    5.6540 H         1 <0>         0.0000
     29 H7          4.4947   -3.7797    6.1290 H         1 <0>         0.0000
     30 H8          2.8872   -4.1345   -2.0879 H         1 <0>         0.0000
     31 H9          2.1738   -5.7124   -1.7140 H         1 <0>         0.0000
     32 H10         3.5794   -5.1449   -0.8119 H         1 <0>         0.0000
     33 H11         0.7565   -4.7621    1.6349 H         1 <0>         0.0000
     34 H12         2.3282   -5.5113    1.3711 H         1 <0>         0.0000
     35 H13         0.9158   -6.0685    0.4541 H         1 <0>         0.0000
     36 H14        -0.3050   -3.3025   -0.2384 H         1 <0>         0.0000
     37 H15        -0.1179   -4.6740   -1.3329 H         1 <0>         0.0000
     38 H16         0.5457   -3.0900   -1.7676 H         1 <0>         0.0000
     39 H17        -0.3565    0.0379    1.8148 H         1 <0>         0.0000
     40 H18         1.0868    1.0659    1.9547 H         1 <0>         0.0000
     41 H19         0.8449   -0.2838    3.0846 H         1 <0>         0.0000
     42 H20         7.0493   -2.7891    3.5757 H         1 <0>         0.0000
     43 H21         5.7503   -1.6191    3.3985 H         1 <0>         0.0000
     44 H22         7.1657   -1.3514    0.7623 H         1 <0>         0.0000
     45 H23         8.1413   -2.5219    1.6590 H         1 <0>         0.0000
     46 H24         5.9704   -4.0198    1.5260 H         1 <0>         0.0000
     47 H25         2.6549   -2.1876   -0.4426 H         1 <0>         0.0000
     48 H26         4.0519   -3.4254    3.7195 H         1 <0>         0.0000
     49 H27         1.7849   -0.4599    0.2815 H         1 <0>         0.0000
     50 H28         3.8157   -4.1378    1.3829 H         1 <0>         0.0000
@<TRIPOS>BOND
     1    1   18 am
     2    1   20 2
     3    2   12 1
     4    2   17 am
     5    2   21 2
     6    3   13 1
     7    3   16 am
     8    3   22 2
     9    4   14 1
    10    5   14 1
    11    6   15 1
    12    7   15 1
    13    8   15 1
    14    9   16 1
    15   10   12 1
    16   10   14 1
    17   11   12 1
    18   11   18 1
    19   13   15 1
    20   13   17 1
    21   18   19 1
    22    1   23 1
    23    4   24 1
    24    4   25 1
    25    4   26 1
    26    5   27 1
    27    5   28 1
    28    5   29 1
    29    6   30 1
    30    6   31 1
    31    6   32 1
    32    7   33 1
    33    7   34 1
    34    7   35 1
    35    8   36 1
    36    8   37 1
    37    8   38 1
    38    9   39 1
    39    9   40 1
    40    9   41 1
    41   10   42 1
    42   10   43 1
    43   11   44 1
    44   11   45 1
    45   12   46 1
    46   13   47 1
    47   14   48 1
    48   16   49 1
    49   17   50 1
@<TRIPOS>MOLECULE
LIGAND
   50    49     0     0     0
SMALL
NO_CHARGES

@<TRIPOS>ATOM
      1 C1          6.8041   -2.8570   -1.8325 C.2       1 <0>         0.0000
      2 C2          4.7609   -2.3304    1.0158 C.2       1 <0>         0.0000
      3 C3          1.6238   -2.1763    1.4428 C.2       1 <0>         0.0000
      4 C4          4.8998   -3.3220    4.5808 C.3       1 <0>         0.0000
      5 C5          5.9126   -1.1117    5.1647 C.3       1 <0>         0.0000
      6 C6          2.1972   -4.3736   -1.6870 C.3       1 <0>         0.0000
      7 C7          2.0616   -5.4127    0.5721 C.3       1 <0>         0.0000
      8 C8          0.1787   -3.9917   -0.2602 C.3       1 <0>         0.0000
      9 C9          0.0532   -0.2939    1.7895 C.3       1 <0>         0.0000
     10 C10         6.4405   -2.1272    2.9267 C.3       1 <0>         0.0000
     11 C11         7.1342   -3.0688    0.6654 C.3       1 <0>         0.0000
     12 C12         5.9953   -2.9363    1.6910 C.3       1 <0>         0.0000
     13 C13         2.4245   -2.8999    0.3599 C.3       1 <0>         0.0000
     14 C14         5.3645   -1.9750    4.0244 C.3       1 <0>         0.0000
     15 C15         1.7114   -4.1488   -0.2382 C.3       1 <0>         0.0000
     16 N1          0.8675   -1.1285    0.9389 N.am      1 <0>         0.0000
     17 N2          3.6959   -3.2182    0.9688 N.am      1 <0>         0.0000
     18 N3          6.6876   -3.5101   -0.6286 N.am      1 <0>         0.0000
     19 O1          6.0688   -4.7449   -0.6335 O.3       1 <0>         0.0000
     20 O2          7.3213   -1.7591   -2.0160 O.2       1 <0>         0.0000
     21 O3          4.7482   -1.1914    0.5542 O.2       1 <0>         0.0000
     22 O4          1.6741   -2.4892    2.6314 O.2       1 <0>         0.0000
     23 H1          6.3754   -3.4180   -2.6817 H         1 <0>         0.0000
     24 H2          5.7423   -3.8772    5.0075 H         1 <0>         0.0000
     25 H3          4.4501   -3.9417    3.7978 H         1 <0>         0.0000
     26 H4          4.1642   -3.1925    5.3800 H         1 <0>         0.0000
     27 H5          6.7922   -1.5734    5.6261 H         1 <0>         0.0000
     28 H6          6.2016   -0.1209    4.7985 H         1 <0>         0.0000
     29 H7          5.1564   -0.9697    5.9440 H         1 <0>         0.0000
     30 H8          1.9755   -3.5045   -2.3165 H         1 <0>         0.0000
     31 H9          1.7217   -5.2491   -2.1424 H         1 <0>         0.0000
     32 H10         3.2803   -4.5391   -1.7204 H         1 <0>         0.0000
     33 H11         1.7403   -5.3146    1.6156 H         1 <0>         0.0000
     34 H12         3.1406   -5.5993    0.5864 H         1 <0>         0.0000
     35 H13         1.5681   -6.2984    0.1566 H         1 <0>         0.0000
     36 H14        -0.2125   -3.8293    0.7511 H         1 <0>         0.0000
     37 H15        -0.3138   -4.8846   -0.6595 H         1 <0>         0.0000
     38 H16        -0.1312   -3.1347   -0.8670 H         1 <0>         0.0000
     39 H17        -0.9522   -0.7139    1.8767 H         1 <0>         0.0000
     40 H18        -0.0213    0.7135    1.3710 H         1 <0>         0.0000
     41 H19         0.4945   -0.2269    2.7876 H         1 <0>         0.0000
     42 H20         7.3251   -2.6069    3.3666 H         1 <0>         0.0000
     43 H21         6.7588   -1.1249    2.6110 H         1 <0>         0.0000
     44 H22         7.6361   -2.1057    0.5239 H         1 <0>         0.0000
     45 H23         7.8866   -3.7891    1.0029 H         1 <0>         0.0000
     46 H24         5.7385   -3.9535    2.0094 H         1 <0>         0.0000
     47 H25         2.6549   -2.1876   -0.4426 H         1 <0>         0.0000
     48 H26         4.4913   -1.4577    3.6101 H         1 <0>         0.0000
     49 H27         0.8872   -0.9429   -0.0594 H         1 <0>         0.0000
     50 H28         3.8157   -4.1378    1.3829 H         1 <0>         0.0000
@<TRIPOS>BOND
     1    1   18 am
     2    1   20 2
     3    2   12 1
     4    2   17 am
     5    2   21 2
     6    3   13 1
     7    3   16 am
     8    3   22 2
     9    4   14 1
    10    5   14 1
    11    6   15 1
    12    7   15 1
    13    8   15 1
    14    9   16 1
    15   10   12 1
    16   10   14 1
    17   11   12 1
    18   11   18 1
    19   13   15 1
    20   13   17 1
    21   18   19 1
    22    1   23 1
    23    4   24 1
    24    4   25 1
    25    4   26 1
    26    5   27 1
    27    5   28 1
    28    5   29 1
    29    6   30 1
    30    6   31 1
    31    6   32 1
    32    7   33 1
    33    7   34 1
    34    7   35 1
    35    8   36 1
    36    8   37 1
    37    8   38 1
    38    9   39 1
    39    9   40 1
    40    9   41 1
    41   10   42 1
    42   10   43 1
    43   11   44 1
    44   11   45 1
    45   12   46 1
    46   13   47 1
    47   14   48 1
    48   16   49 1
    49   17   50 1
@<TRIPOS>MOLECULE
LIGAND
   50    49     0     0     0
SMALL
NO_CHARGES

@<TRIPOS>ATOM
      1 C1          4.1712   -1.7701    4.5874 C.2       1 <0>         0.0000
      2 C2          4.7609   -2.3304    1.0158 C.2       1 <0>         0.0000
      3 C3          1.3743   -3.6105    1.2141 C.2       1 <0>         0.0000
      4 C4          8.5547   -3.1178   -0.0742 C.3       1 <0>         0.0000
      5 C5          7.6782   -5.2829   -0.9666 C.3       1 <0>         0.0000
      6 C6          3.5112   -2.5312   -1.8976 C.3       1 <0>         0.0000
      7 C7          2.5798   -4.7765   -1.3563 C.3       1 <0>         0.0000
      8 C8          1.0336   -2.8618   -1.8044 C.3       1 <0>         0.0000
      9 C9          0.0942   -3.3985    3.3229 C.3       1 <0>         0.0000
     10 C10         6.4903   -4.2069    0.9698 C.3       1 <0>         0.0000
     11 C11         5.6912   -3.2135    3.1734 C.3       1 <0>         0.0000
     12 C12         5.9953   -2.9363    1.6910 C.3       1 <0>         0.0000
     13 C13         2.4245   -2.8999    0.3599 C.3       1 <0>         0.0000
     14 C14         7.2936   -3.9469   -0.3237 C.3       1 <0>         0.0000
     15 C15         2.3718   -3.2623   -1.1540 C.3       1 <0>         0.0000
     16 N1          1.0472   -2.9007    2.3600 N.am      1 <0>         0.0000
     17 N2          3.6959   -3.2182    0.9688 N.am      1 <0>         0.0000
     18 N3          5.3407   -2.0316    3.9142 N.am      1 <0>         0.0000
     19 O1          6.3174   -1.0552    3.9355 O.3       1 <0>         0.0000
     20 O2          3.2011   -2.5170    4.6749 O.2       1 <0>         0.0000
     21 O3          4.7482   -1.1914    0.5542 O.2       1 <0>         0.0000
     22 O4          0.8978   -4.7040    0.9134 O.2       1 <0>         0.0000
     23 H1          4.1565   -0.7806    5.0777 H         1 <0>         0.0000
     24 H2          9.2158   -3.6219    0.6392 H         1 <0>         0.0000
     25 H3          8.3079   -2.1320    0.3339 H         1 <0>         0.0000
     26 H4          9.1275   -2.9738   -0.9949 H         1 <0>         0.0000
     27 H5          8.3104   -5.8785   -0.2992 H         1 <0>         0.0000
     28 H6          6.7859   -5.8716   -1.2045 H         1 <0>         0.0000
     29 H7          8.2280   -5.1221   -1.9000 H         1 <0>         0.0000
     30 H8          3.4182   -1.4447   -1.7906 H         1 <0>         0.0000
     31 H9          3.5120   -2.7653   -2.9677 H         1 <0>         0.0000
     32 H10         4.4918   -2.8203   -1.5020 H         1 <0>         0.0000
     33 H11         1.7979   -5.3538   -0.8491 H         1 <0>         0.0000
     34 H12         3.5395   -5.1121   -0.9494 H         1 <0>         0.0000
     35 H13         2.5489   -5.0416   -2.4191 H         1 <0>         0.0000
     36 H14         0.1926   -3.3589   -1.3070 H         1 <0>         0.0000
     37 H15         0.9978   -3.1431   -2.8622 H         1 <0>         0.0000
     38 H16         0.8573   -1.7835   -1.7352 H         1 <0>         0.0000
     39 H17        -0.9122   -3.0580    3.0659 H         1 <0>         0.0000
     40 H18         0.3436   -3.0358    4.3238 H         1 <0>         0.0000
     41 H19         0.1039   -4.4917    3.3338 H         1 <0>         0.0000
     42 H20         7.1160   -4.7876    1.6607 H         1 <0>         0.0000
     43 H21         5.6310   -4.8442    0.7228 H         1 <0>         0.0000
     44 H22         4.8556   -3.9151    3.2682 H         1 <0>         0.0000
     45 H23         6.5563   -3.6574    3.6769 H         1 <0>         0.0000
     46 H24         6.7931   -2.1847    1.6686 H         1 <0>         0.0000
     47 H25         2.3043   -1.8161    0.4837 H         1 <0>         0.0000
     48 H26         6.6656   -3.4052   -1.0405 H         1 <0>         0.0000
     49 H27         1.4921   -2.0031    2.5267 H         1 <0>         0.0000
     50 H28         3.8157   -4.1378    1.3829 H         1 <0>         0.0000
@<TRIPOS>BOND
     1    1   18 am
     2    1   20 2
     3    2   12 1
     4    2   17 am
     5    2   21 2
     6    3   13 1
     7    3   16 am
     8    3   22 2
     9    4   14 1
    10    5   14 1
    11    6   15 1
    12    7   15 1
    13    8   15 1
    14    9   16 1
    15   10   12 1
    16   10   14 1
    17   11   12 1
    18   11   18 1
    19   13   15 1
    20   13   17 1
    21   18   19 1
    22    1   23 1
    23    4   24 1
    24    4   25 1
    25    4   26 1
    26    5   27 1
    27    5   28 1
    28    5   29 1
    29    6   30 1
    30    6   31 1
    31    6   32 1
    32    7   33 1
    33    7   34 1
    34    7   35 1
    35    8   36 1
    36    8   37 1
    37    8   38 1
    38    9   39 1
    39    9   40 1
    40    9   41 1
    41   10   42 1
    42   10   43 1
    43   11   44 1
    44   11   45 1
    45   12   46 1
    46   13   47 1
    47   14   48 1
    48   16   49 1
    49   17   50 1
@<TRIPOS>MOLECULE
LIGAND
   50    49     0     0     0
SMALL
NO_CHARGES

@<TRIPOS>ATOM
      1 C1          8.3592   -4.5104   -0.5472 C.2       1 <0>         0.0000
      2 C2          4.7609   -2.3304    1.0158 C.2       1 <0>         0.0000
      3 C3          1.6238   -2.1763    1.4428 C.2       1 <0>         0.0000
      4 C4          7.0285   -1.4411    4.2202 C.3       1 <0>         0.0000
      5 C5          8.3048    0.0740    2.6945 C.3       1 <0>         0.0000
      6 C6          2.6382   -4.8237   -1.2732 C.3       1 <0>         0.0000
      7 C7          1.4139   -5.1834    0.8654 C.3       1 <0>         0.0000
      8 C8          0.3871   -3.7862   -0.9377 C.3       1 <0>         0.0000
      9 C9          0.7109    0.0436    2.0502 C.3       1 <0>         0.0000
     10 C10         7.1850   -1.9548    1.7203 C.3       1 <0>         0.0000
     11 C11         6.3716   -4.2554    0.9948 C.3       1 <0>         0.0000
     12 C12         5.9953   -2.9363    1.6910 C.3       1 <0>         0.0000
     13 C13         2.4245   -2.8999    0.3599 C.3       1 <0>         0.0000
     14 C14         7.0962   -0.8603    2.8067 C.3       1 <0>         0.0000
     15 C15         1.7114   -4.1488   -0.2382 C.3       1 <0>         0.0000
     16 N1          1.4216   -0.8351    1.1525 N.am      1 <0>         0.0000
     17 N2          3.6959   -3.2182    0.9688 N.am      1 <0>         0.0000
     18 N3          7.0973   -4.0655   -0.2324 N.am      1 <0>         0.0000
     19 O1          6.4199   -3.3439   -1.1957 O.3       1 <0>         0.0000
     20 O2          9.1023   -5.1617    0.1810 O.2       1 <0>         0.0000
     21 O3          4.7482   -1.1914    0.5542 O.2       1 <0>         0.0000
     22 O4          1.2284   -2.7340    2.4655 O.2       1 <0>         0.0000
     23 H1          8.6858   -4.2273   -1.5635 H         1 <0>         0.0000
     24 H2          7.9109   -2.0554    4.4301 H         1 <0>         0.0000
     25 H3          6.1416   -2.0705    4.3492 H         1 <0>         0.0000
     26 H4          7.0010   -0.6512    4.9764 H         1 <0>         0.0000
     27 H5          9.2434   -0.4691    2.8487 H         1 <0>         0.0000
     28 H6          8.3428    0.5443    1.7062 H         1 <0>         0.0000
     29 H7          8.2495    0.8738    3.4405 H         1 <0>         0.0000
     30 H8          2.8872   -4.1345   -2.0879 H         1 <0>         0.0000
     31 H9          2.1738   -5.7124   -1.7140 H         1 <0>         0.0000
     32 H10         3.5794   -5.1449   -0.8119 H         1 <0>         0.0000
     33 H11         0.7565   -4.7621    1.6349 H         1 <0>         0.0000
     34 H12         2.3282   -5.5113    1.3711 H         1 <0>         0.0000
     35 H13         0.9158   -6.0685    0.4541 H         1 <0>         0.0000
     36 H14        -0.3050   -3.3025   -0.2384 H         1 <0>         0.0000
     37 H15        -0.1179   -4.6740   -1.3329 H         1 <0>         0.0000
     38 H16         0.5457   -3.0900   -1.7676 H         1 <0>         0.0000
     39 H17        -0.3565    0.0379    1.8148 H         1 <0>         0.0000
     40 H18         1.0868    1.0659    1.9547 H         1 <0>         0.0000
     41 H19         0.8449   -0.2838    3.0846 H         1 <0>         0.0000
     42 H20         8.1124   -2.5237    1.8705 H         1 <0>         0.0000
     43 H21         7.2788   -1.4660    0.7417 H         1 <0>         0.0000
     44 H22         6.9984   -4.8692    1.6503 H         1 <0>         0.0000
     45 H23         5.4788   -4.8390    0.7471 H         1 <0>         0.0000
     46 H24         5.7229   -3.1911    2.7220 H         1 <0>         0.0000
     47 H25         2.6549   -2.1876   -0.4426 H         1 <0>         0.0000
     48 H26         6.1964   -0.2560    2.6429 H         1 <0>         0.0000
     49 H27         1.7849   -0.4599    0.2815 H         1 <0>         0.0000
     50 H28         3.8157   -4.1378    1.3829 H         1 <0>         0.0000
@<TRIPOS>BOND
     1    1   18 am
     2    1   20 2
     3    2   12 1
     4    2   17 am
     5    2   21 2
     6    3   13 1
     7    3   16 am
     8    3   22 2
     9    4   14 1
    10    5   14 1
    11    6   15 1
    12    7   15 1
    13    8   15 1
    14    9   16 1
    15   10   12 1
    16   10   14 1
    17   11   12 1
    18   11   18 1
    19   13   15 1
    20   13   17 1
    21   18   19 1
    22    1   23 1
    23    4   24 1
    24    4   25 1
    25    4   26 1
    26    5   27 1
    27    5   28 1
    28    5   29 1
    29    6   30 1
    30    6   31 1
    31    6   32 1
    32    7   33 1
    33    7   34 1
    34    7   35 1
    35    8   36 1
    36    8   37 1
    37    8   38 1
    38    9   39 1
    39    9   40 1
    40    9   41 1
    41   10   42 1
    42   10   43 1
    43   11   44 1
    44   11   45 1
    45   12   46 1
    46   13   47 1
    47   14   48 1
    48   16   49 1
    49   17   50 1
@<TRIPOS>MOLECULE
LIGAND
   50    49     0     0     0
SMALL
NO_CHARGES

@<TRIPOS>ATOM
      1 C1          8.6027   -4.5615    0.9314 C.2       1 <0>         0.0000
      2 C2          4.7609   -2.3304    1.0158 C.2       1 <0>         0.0000
      3 C3          1.4114   -2.9063    1.5049 C.2       1 <0>         0.0000
      4 C4          4.6188   -4.7049    3.8537 C.3       1 <0>         0.0000
      5 C5          4.9148   -2.8132    5.4620 C.3       1 <0>         0.0000
      6 C6          2.6765   -3.3019   -2.1277 C.3       1 <0>         0.0000
      7 C7          2.6544   -5.2554   -0.5834 C.3       1 <0>         0.0000
      8 C8          0.5425   -3.9869   -1.0173 C.3       1 <0>         0.0000
      9 C9         -0.0359   -1.4126    2.8483 C.3       1 <0>         0.0000
     10 C10         6.0212   -2.6662    3.2096 C.3       1 <0>         0.0000
     11 C11         7.2695   -2.4142    1.0053 C.3       1 <0>         0.0000
     12 C12         5.9953   -2.9363    1.6910 C.3       1 <0>         0.0000
     13 C13         2.4245   -2.8999    0.3599 C.3       1 <0>         0.0000
     14 C14         4.7908   -3.1904    3.9826 C.3       1 <0>         0.0000
     15 C15         2.0646   -3.8508   -0.8201 C.3       1 <0>         0.0000
     16 N1          0.9155   -1.6421    1.7876 N.am      1 <0>         0.0000
     17 N2          3.6959   -3.2182    0.9688 N.am      1 <0>         0.0000
     18 N3          8.4249   -3.2358    1.2479 N.am      1 <0>         0.0000
     19 O1          9.4695   -2.5879    1.8778 O.3       1 <0>         0.0000
     20 O2          7.7876   -5.2906    0.3741 O.2       1 <0>         0.0000
     21 O3          4.7482   -1.1914    0.5542 O.2       1 <0>         0.0000
     22 O4          1.0981   -3.9285    2.1133 O.2       1 <0>         0.0000
     23 H1          9.5898   -4.9573    1.2289 H         1 <0>         0.0000
     24 H2          5.5037   -5.2294    4.2303 H         1 <0>         0.0000
     25 H3          4.4709   -5.0006    2.8097 H         1 <0>         0.0000
     26 H4          3.7637   -5.0613    4.4353 H         1 <0>         0.0000
     27 H5          5.8053   -3.2631    5.9141 H         1 <0>         0.0000
     28 H6          4.9845   -1.7270    5.5823 H         1 <0>         0.0000
     29 H7          4.0398   -3.1538    6.0255 H         1 <0>         0.0000
     30 H8          2.2940   -2.2998   -2.3517 H         1 <0>         0.0000
     31 H9          2.4502   -3.9477   -2.9831 H         1 <0>         0.0000
     32 H10         3.7681   -3.2311   -2.0551 H         1 <0>         0.0000
     33 H11         2.2564   -5.7011    0.3358 H         1 <0>         0.0000
     34 H12         3.7440   -5.2254   -0.4780 H         1 <0>         0.0000
     35 H13         2.4105   -5.9315   -1.4105 H         1 <0>         0.0000
     36 H14         0.0636   -4.3749   -0.1106 H         1 <0>         0.0000
     37 H15         0.3004   -4.6763   -1.8330 H         1 <0>         0.0000
     38 H16         0.0759   -3.0219   -1.2405 H         1 <0>         0.0000
     39 H17        -1.0554   -1.5084    2.4658 H         1 <0>         0.0000
     40 H18         0.0924   -0.4080    3.2604 H         1 <0>         0.0000
     41 H19         0.1090   -2.1415    3.6503 H         1 <0>         0.0000
     42 H20         6.9244   -3.1220    3.6370 H         1 <0>         0.0000
     43 H21         6.1083   -1.5861    3.3865 H         1 <0>         0.0000
     44 H22         7.1283   -2.3661   -0.0797 H         1 <0>         0.0000
     45 H23         7.5195   -1.4064    1.3527 H         1 <0>         0.0000
     46 H24         5.9704   -4.0198    1.5260 H         1 <0>         0.0000
     47 H25         2.5279   -1.8729   -0.0129 H         1 <0>         0.0000
     48 H26         3.8848   -2.7101    3.5951 H         1 <0>         0.0000
     49 H27         1.2316   -0.8537    1.2310 H         1 <0>         0.0000
     50 H28         3.8157   -4.1378    1.3829 H         1 <0>         0.0000
@<TRIPOS>BOND
     1    1   18 am
     2    1   20 2
     3    2   12 1
     4    2   17 am
     5    2   21 2
     6    3   13 1
     7    3   16 am
     8    3   22 2
     9    4   14 1
    10    5   14 1
    11    6   15 1
    12    7   15 1
    13    8   15 1
    14    9   16 1
    15   10   12 1
    16   10   14 1
    17   11   12 1
    18   11   18 1
    19   13   15 1
    20   13   17 1
    21   18   19 1
    22    1   23 1
    23    4   24 1
    24    4   25 1
    25    4   26 1
    26    5   27 1
    27    5   28 1
    28    5   29 1
    29    6   30 1
    30    6   31 1
    31    6   32 1
    32    7   33 1
    33    7   34 1
    34    7   35 1
    35    8   36 1
    36    8   37 1
    37    8   38 1
    38    9   39 1
    39    9   40 1
    40    9   41 1
    41   10   42 1
    42   10   43 1
    43   11   44 1
    44   11   45 1
    45   12   46 1
    46   13   47 1
    47   14   48 1
    48   16   49 1
    49   17   50 1
@<TRIPOS>MOLECULE
LIGAND
   50    49     0     0     0
SMALL
NO_CHARGES

@<TRIPOS>ATOM
      1 C1          5.0743   -0.8742    3.9084 C.2       1 <0>         0.0000
      2 C2          4.7609   -2.3304    1.0158 C.2       1 <0>         0.0000
      3 C3          1.4114   -2.9063    1.5049 C.2       1 <0>         0.0000
      4 C4          7.9668   -2.9805   -0.7195 C.3       1 <0>         0.0000
      5 C5          7.2752   -5.3485   -1.1277 C.3       1 <0>         0.0000
      6 C6          2.6765   -3.3019   -2.1277 C.3       1 <0>         0.0000
      7 C7          2.6544   -5.2554   -0.5834 C.3       1 <0>         0.0000
      8 C8          0.5425   -3.9869   -1.0173 C.3       1 <0>         0.0000
      9 C9         -0.5781   -1.7107    2.3670 C.3       1 <0>         0.0000
     10 C10         6.4903   -4.2069    0.9698 C.3       1 <0>         0.0000
     11 C11         5.6912   -3.2135    3.1734 C.3       1 <0>         0.0000
     12 C12         5.9953   -2.9363    1.6910 C.3       1 <0>         0.0000
     13 C13         2.4245   -2.8999    0.3599 C.3       1 <0>         0.0000
     14 C14         6.8518   -4.0083   -0.5189 C.3       1 <0>         0.0000
     15 C15         2.0646   -3.8508   -0.8201 C.3       1 <0>         0.0000
     16 N1          0.4604   -1.9038    1.3835 N.am      1 <0>         0.0000
     17 N2          3.6959   -3.2182    0.9688 N.am      1 <0>         0.0000
     18 N3          5.7903   -2.0436    4.0042 N.am      1 <0>         0.0000
     19 O1          6.7278   -2.1331    5.0145 O.3       1 <0>         0.0000
     20 O2          5.1856    0.1071    4.6373 O.2       1 <0>         0.0000
     21 O3          4.7482   -1.1914    0.5542 O.2       1 <0>         0.0000
     22 O4          1.4623   -3.7076    2.4368 O.2       1 <0>         0.0000
     23 H1          4.3439   -0.8710    3.0801 H         1 <0>         0.0000
     24 H2          8.8753   -3.2848   -0.1883 H         1 <0>         0.0000
     25 H3          7.6713   -1.9951   -0.3441 H         1 <0>         0.0000
     26 H4          8.2323   -2.8793   -1.7758 H         1 <0>         0.0000
     27 H5          8.1599   -5.7527   -0.6240 H         1 <0>         0.0000
     28 H6          6.4698   -6.0859   -1.0440 H         1 <0>         0.0000
     29 H7          7.5125   -5.2358   -2.1909 H         1 <0>         0.0000
     30 H8          2.2940   -2.2998   -2.3517 H         1 <0>         0.0000
     31 H9          2.4502   -3.9477   -2.9831 H         1 <0>         0.0000
     32 H10         3.7681   -3.2311   -2.0551 H         1 <0>         0.0000
     33 H11         2.2564   -5.7011    0.3358 H         1 <0>         0.0000
     34 H12         3.7440   -5.2254   -0.4780 H         1 <0>         0.0000
     35 H13         2.4105   -5.9315   -1.4105 H         1 <0>         0.0000
     36 H14         0.0636   -4.3749   -0.1106 H         1 <0>         0.0000
     37 H15         0.3004   -4.6763   -1.8330 H         1 <0>         0.0000
     38 H16         0.0759   -3.0219   -1.2405 H         1 <0>         0.0000
     39 H17        -1.4589   -2.3023    2.1044 H         1 <0>         0.0000
     40 H18        -0.8634   -0.6562    2.4133 H         1 <0>         0.0000
     41 H19        -0.2264   -2.0222    3.3542 H         1 <0>         0.0000
     42 H20         7.3727   -4.5944    1.4964 H         1 <0>         0.0000
     43 H21         5.7222   -4.9884    1.0394 H         1 <0>         0.0000
     44 H22         4.6761   -3.6079    3.2888 H         1 <0>         0.0000
     45 H23         6.3842   -3.9541    3.5861 H         1 <0>         0.0000
     46 H24         6.7931   -2.1847    1.6686 H         1 <0>         0.0000
     47 H25         2.5279   -1.8729   -0.0129 H         1 <0>         0.0000
     48 H26         5.9671   -3.6628   -1.0661 H         1 <0>         0.0000
     49 H27         0.4960   -1.2867    0.5777 H         1 <0>         0.0000
     50 H28         3.8157   -4.1378    1.3829 H         1 <0>         0.0000
@<TRIPOS>BOND
     1    1   18 am
     2    1   20 2
     3    2   12 1
     4    2   17 am
     5    2   21 2
     6    3   13 1
     7    3   16 am
     8    3   22 2
     9    4   14 1
    10    5   14 1
    11    6   15 1
    12    7   15 1
    13    8   15 1
    14    9   16 1
    15   10   12 1
    16   10   14 1
    17   11   12 1
    18   11   18 1
    19   13   15 1
    20   13   17 1
    21   18   19 1
    22    1   23 1
    23    4   24 1
    24    4   25 1
    25    4   26 1
    26    5   27 1
    27    5   28 1
    28    5   29 1
    29    6   30 1
    30    6   31 1
    31    6   32 1
    32    7   33 1
    33    7   34 1
    34    7   35 1
    35    8   36 1
    36    8   37 1
    37    8   38 1
    38    9   39 1
    39    9   40 1
    40    9   41 1
    41   10   42 1
    42   10   43 1
    43   11   44 1
    44   11   45 1
    45   12   46 1
    46   13   47 1
    47   14   48 1
    48   16   49 1
    49   17   50 1
@<TRIPOS>MOLECULE
LIGAND
   50    49     0     0     0
SMALL
NO_CHARGES

@<TRIPOS>ATOM
      1 C1          9.2970   -4.1372    0.8354 C.2       1 <0>         0.0000
      2 C2          4.7609   -2.3304    1.0158 C.2       1 <0>         0.0000
      3 C3          1.9548   -1.6162    1.0446 C.2       1 <0>         0.0000
      4 C4          5.5916   -1.8934    4.5978 C.3       1 <0>         0.0000
      5 C5          7.0929    0.0222    4.0244 C.3       1 <0>         0.0000
      6 C6          2.0155   -5.3270   -0.2360 C.3       1 <0>         0.0000
      7 C7          1.1035   -4.4371    1.9036 C.3       1 <0>         0.0000
      8 C8          0.0778   -3.7458   -0.2707 C.3       1 <0>         0.0000
      9 C9          1.8710   -0.4888    3.2474 C.3       1 <0>         0.0000
     10 C10         6.8665   -1.8668    2.3816 C.3       1 <0>         0.0000
     11 C11         6.8055   -3.7427    0.6616 C.3       1 <0>         0.0000
     12 C12         5.9953   -2.9363    1.6910 C.3       1 <0>         0.0000
     13 C13         2.4245   -2.8999    0.3599 C.3       1 <0>         0.0000
     14 C14         6.1374   -1.0321    3.4575 C.3       1 <0>         0.0000
     15 C15         1.4067   -4.0765    0.4357 C.3       1 <0>         0.0000
     16 N1          2.2464   -1.5955    2.4005 N.am      1 <0>         0.0000
     17 N2          3.6959   -3.2182    0.9688 N.am      1 <0>         0.0000
     18 N3          7.9912   -4.3422    1.2125 N.am      1 <0>         0.0000
     19 O1          7.7606   -5.2290    2.2460 O.3       1 <0>         0.0000
     20 O2          9.6863   -3.3900   -0.0572 O.2       1 <0>         0.0000
     21 O3          4.7482   -1.1914    0.5542 O.2       1 <0>         0.0000
     22 O4          1.3637   -0.7184    0.4464 O.2       1 <0>         0.0000
     23 H1         10.0234   -4.7251    1.4239 H         1 <0>         0.0000
     24 H2          6.4006   -2.4456    5.0885 H         1 <0>         0.0000
     25 H3          4.8609   -2.6219    4.2310 H         1 <0>         0.0000
     26 H4          5.1097   -1.2817    5.3659 H         1 <0>         0.0000
     27 H5          7.9623   -0.4436    4.5008 H         1 <0>         0.0000
     28 H6          7.4545    0.6861    3.2321 H         1 <0>         0.0000
     29 H7          6.5886    0.6429    4.7727 H         1 <0>         0.0000
     30 H8          2.2541   -5.1329   -1.2877 H         1 <0>         0.0000
     31 H9          1.3305   -6.1810   -0.1982 H         1 <0>         0.0000
     32 H10         2.9425   -5.6329    0.2628 H         1 <0>         0.0000
     33 H11         0.6668   -3.5850    2.4375 H         1 <0>         0.0000
     34 H12         2.0104   -4.7234    2.4466 H         1 <0>         0.0000
     35 H13         0.3913   -5.2673    1.9681 H         1 <0>         0.0000
     36 H14        -0.3923   -2.8611    0.1746 H         1 <0>         0.0000
     37 H15        -0.6390   -4.5698   -0.1902 H         1 <0>         0.0000
     38 H16         0.2276   -3.5306   -1.3336 H         1 <0>         0.0000
     39 H17         2.6703    0.2566    3.2680 H         1 <0>         0.0000
     40 H18         1.6893   -0.8381    4.2675 H         1 <0>         0.0000
     41 H19         0.9594   -0.0170    2.8710 H         1 <0>         0.0000
     42 H20         7.7322   -2.3581    2.8457 H         1 <0>         0.0000
     43 H21         7.2705   -1.1813    1.6250 H         1 <0>         0.0000
     44 H22         6.1970   -4.5521    0.2444 H         1 <0>         0.0000
     45 H23         7.1292   -3.1080   -0.1699 H         1 <0>         0.0000
     46 H24         5.6479   -3.6501    2.4472 H         1 <0>         0.0000
     47 H25         2.6512   -2.6760   -0.6903 H         1 <0>         0.0000
     48 H26         5.2955   -0.5008    2.9986 H         1 <0>         0.0000
     49 H27         2.7394   -2.3834    2.8099 H         1 <0>         0.0000
     50 H28         3.8157   -4.1378    1.3829 H         1 <0>         0.0000
@<TRIPOS>BOND
     1    1   18 am
     2    1   20 2
     3    2   12 1
     4    2   17 am
     5    2   21 2
     6    3   13 1
     7    3   16 am
     8    3   22 2
     9    4   14 1
    10    5   14 1
    11    6   15 1
    12    7   15 1
    13    8   15 1
    14    9   16 1
    15   10   12 1
    16   10   14 1
    17   11   12 1
    18   11   18 1
    19   13   15 1
    20   13   17 1
    21   18   19 1
    22    1   23 1
    23    4   24 1
    24    4   25 1
    25    4   26 1
    26    5   27 1
    27    5   28 1
    28    5   29 1
    29    6   30 1
    30    6   31 1
    31    6   32 1
    32    7   33 1
    33    7   34 1
    34    7   35 1
    35    8   36 1
    36    8   37 1
    37    8   38 1
    38    9   39 1
    39    9   40 1
    40    9   41 1
    41   10   42 1
    42   10   43 1
    43   11   44 1
    44   11   45 1
    45   12   46 1
    46   13   47 1
    47   14   48 1
    48   16   49 1
    49   17   50 1
@<TRIPOS>MOLECULE
LIGAND
   50    49     0     0     0
SMALL
NO_CHARGES

@<TRIPOS>ATOM
      1 C1          9.0699   -4.7593    1.1439 C.2       1 <0>         0.0000
      2 C2          4.7609   -2.3304    1.0158 C.2       1 <0>         0.0000
      3 C3          1.4114   -2.9063    1.5049 C.2       1 <0>         0.0000
      4 C4          5.5916   -1.8934    4.5978 C.3       1 <0>         0.0000
      5 C5          7.0929    0.0222    4.0244 C.3       1 <0>         0.0000
      6 C6          3.1857   -3.8003   -1.8813 C.3       1 <0>         0.0000
      7 C7          1.9543   -5.3076   -0.3278 C.3       1 <0>         0.0000
      8 C8          0.7370   -3.4626   -1.4991 C.3       1 <0>         0.0000
      9 C9          0.5462   -1.5170    3.3628 C.3       1 <0>         0.0000
     10 C10         6.8665   -1.8668    2.3816 C.3       1 <0>         0.0000
     11 C11         6.8055   -3.7427    0.6616 C.3       1 <0>         0.0000
     12 C12         5.9953   -2.9363    1.6910 C.3       1 <0>         0.0000
     13 C13         2.4245   -2.8999    0.3599 C.3       1 <0>         0.0000
     14 C14         6.1374   -1.0321    3.4575 C.3       1 <0>         0.0000
     15 C15         2.0646   -3.8508   -0.8201 C.3       1 <0>         0.0000
     16 N1          1.4084   -1.7198    2.2232 N.am      1 <0>         0.0000
     17 N2          3.6959   -3.2182    0.9688 N.am      1 <0>         0.0000
     18 N3          7.7018   -4.6947    1.2608 N.am      1 <0>         0.0000
     19 O1          7.0858   -5.6503    2.0450 O.3       1 <0>         0.0000
     20 O2          9.8054   -5.5884    1.6713 O.2       1 <0>         0.0000
     21 O3          4.7482   -1.1914    0.5542 O.2       1 <0>         0.0000
     22 O4          0.6993   -3.8762    1.7607 O.2       1 <0>         0.0000
     23 H1          9.4955   -3.9666    0.5035 H         1 <0>         0.0000
     24 H2          6.4006   -2.4456    5.0885 H         1 <0>         0.0000
     25 H3          4.8609   -2.6219    4.2310 H         1 <0>         0.0000
     26 H4          5.1097   -1.2817    5.3659 H         1 <0>         0.0000
     27 H5          7.9623   -0.4436    4.5008 H         1 <0>         0.0000
     28 H6          7.4545    0.6861    3.2321 H         1 <0>         0.0000
     29 H7          6.5886    0.6429    4.7727 H         1 <0>         0.0000
     30 H8          3.3133   -2.7845   -2.2720 H         1 <0>         0.0000
     31 H9          2.9723   -4.4622   -2.7277 H         1 <0>         0.0000
     32 H10         4.1465   -4.1154   -1.4578 H         1 <0>         0.0000
     33 H11         1.1705   -5.4095    0.4319 H         1 <0>         0.0000
     34 H12         2.8879   -5.6535    0.1281 H         1 <0>         0.0000
     35 H13         1.7055   -5.9859   -1.1517 H         1 <0>         0.0000
     36 H14        -0.0909   -3.4848   -0.7807 H         1 <0>         0.0000
     37 H15         0.4812   -4.1517   -2.3109 H         1 <0>         0.0000
     38 H16         0.7762   -2.4505   -1.9146 H         1 <0>         0.0000
     39 H17        -0.4080   -1.0916    3.0410 H         1 <0>         0.0000
     40 H18         1.0149   -0.8317    4.0742 H         1 <0>         0.0000
     41 H19         0.3553   -2.4685    3.8664 H         1 <0>         0.0000
     42 H20         7.7322   -2.3581    2.8457 H         1 <0>         0.0000
     43 H21         7.2705   -1.1813    1.6250 H         1 <0>         0.0000
     44 H22         6.1354   -4.3010   -0.0008 H         1 <0>         0.0000
     45 H23         7.4165   -3.0830    0.0367 H         1 <0>         0.0000
     46 H24         5.6479   -3.6501    2.4472 H         1 <0>         0.0000
     47 H25         2.5279   -1.8729   -0.0129 H         1 <0>         0.0000
     48 H26         5.2955   -0.5008    2.9986 H         1 <0>         0.0000
     49 H27         2.0322   -0.9706    1.9386 H         1 <0>         0.0000
     50 H28         3.8157   -4.1378    1.3829 H         1 <0>         0.0000
@<TRIPOS>BOND
     1    1   18 am
     2    1   20 2
     3    2   12 1
     4    2   17 am
     5    2   21 2
     6    3   13 1
     7    3   16 am
     8    3   22 2
     9    4   14 1
    10    5   14 1
    11    6   15 1
    12    7   15 1
    13    8   15 1
    14    9   16 1
    15   10   12 1
    16   10   14 1
    17   11   12 1
    18   11   18 1
    19   13   15 1
    20   13   17 1
    21   18   19 1
    22    1   23 1
    23    4   24 1
    24    4   25 1
    25    4   26 1
    26    5   27 1
    27    5   28 1
    28    5   29 1
    29    6   30 1
    30    6   31 1
    31    6   32 1
    32    7   33 1
    33    7   34 1
    34    7   35 1
    35    8   36 1
    36    8   37 1
    37    8   38 1
    38    9   39 1
    39    9   40 1
    40    9   41 1
    41   10   42 1
    42   10   43 1
    43   11   44 1
    44   11   45 1
    45   12   46 1
    46   13   47 1
    47   14   48 1
    48   16   49 1
    49   17   50 1
@<TRIPOS>MOLECULE
LIGAND
   50    49     0     0     0
SMALL
NO_CHARGES

@<TRIPOS>ATOM
      1 C1          7.1719   -2.7895   -1.4934 C.2       1 <0>         0.0000
      2 C2          4.7609   -2.3304    1.0158 C.2       1 <0>         0.0000
      3 C3          1.4114   -2.9063    1.5049 C.2       1 <0>         0.0000
      4 C4          5.4286   -5.0551    3.9022 C.3       1 <0>         0.0000
      5 C5          5.1681   -3.1669    5.5205 C.3       1 <0>         0.0000
      6 C6          3.1857   -3.8003   -1.8813 C.3       1 <0>         0.0000
      7 C7          1.9543   -5.3076   -0.3278 C.3       1 <0>         0.0000
      8 C8          0.7370   -3.4626   -1.4991 C.3       1 <0>         0.0000
      9 C9          1.0123   -1.9958    3.7725 C.3       1 <0>         0.0000
     10 C10         6.0212   -2.6662    3.2096 C.3       1 <0>         0.0000
     11 C11         7.2695   -2.4142    1.0053 C.3       1 <0>         0.0000
     12 C12         5.9953   -2.9363    1.6910 C.3       1 <0>         0.0000
     13 C13         2.4245   -2.8999    0.3599 C.3       1 <0>         0.0000
     14 C14         5.0884   -3.5706    4.0452 C.3       1 <0>         0.0000
     15 C15         2.0646   -3.8508   -0.8201 C.3       1 <0>         0.0000
     16 N1          1.8071   -2.1159    2.5738 N.am      1 <0>         0.0000
     17 N2          3.6959   -3.2182    0.9688 N.am      1 <0>         0.0000
     18 N3          7.5808   -3.1022   -0.2189 N.am      1 <0>         0.0000
     19 O1          8.3919   -4.2098   -0.0662 O.3       1 <0>         0.0000
     20 O2          7.4579   -3.4011   -2.5184 O.2       1 <0>         0.0000
     21 O3          4.7482   -1.1914    0.5542 O.2       1 <0>         0.0000
     22 O4          0.3728   -3.5647    1.4736 O.2       1 <0>         0.0000
     23 H1          6.5270   -1.8943   -1.5422 H         1 <0>         0.0000
     24 H2          6.4596   -5.2491    4.2175 H         1 <0>         0.0000
     25 H3          5.3256   -5.3883    2.8641 H         1 <0>         0.0000
     26 H4          4.7804   -5.6761    4.5273 H         1 <0>         0.0000
     27 H5          6.1838   -3.2884    5.9121 H         1 <0>         0.0000
     28 H6          4.8754   -2.1200    5.6540 H         1 <0>         0.0000
     29 H7          4.4947   -3.7797    6.1290 H         1 <0>         0.0000
     30 H8          3.3133   -2.7845   -2.2720 H         1 <0>         0.0000
     31 H9          2.9723   -4.4622   -2.7277 H         1 <0>         0.0000
     32 H10         4.1465   -4.1154   -1.4578 H         1 <0>         0.0000
     33 H11         1.1705   -5.4095    0.4319 H         1 <0>         0.0000
     34 H12         2.8879   -5.6535    0.1281 H         1 <0>         0.0000
     35 H13         1.7055   -5.9859   -1.1517 H         1 <0>         0.0000
     36 H14        -0.0909   -3.4848   -0.7807 H         1 <0>         0.0000
     37 H15         0.4812   -4.1517   -2.3109 H         1 <0>         0.0000
     38 H16         0.7762   -2.4505   -1.9146 H         1 <0>         0.0000
     39 H17         0.3100   -1.1637    3.6759 H         1 <0>         0.0000
     40 H18         1.6568   -1.8137    4.6368 H         1 <0>         0.0000
     41 H19         0.4467   -2.9155    3.9448 H         1 <0>         0.0000
     42 H20         7.0493   -2.7891    3.5757 H         1 <0>         0.0000
     43 H21         5.7503   -1.6191    3.3985 H         1 <0>         0.0000
     44 H22         7.1657   -1.3514    0.7623 H         1 <0>         0.0000
     45 H23         8.1413   -2.5219    1.6590 H         1 <0>         0.0000
     46 H24         5.9704   -4.0198    1.5260 H         1 <0>         0.0000
     47 H25         2.5279   -1.8729   -0.0129 H         1 <0>         0.0000
     48 H26         4.0519   -3.4254    3.7195 H         1 <0>         0.0000
     49 H27         2.6832   -1.6060    2.5111 H         1 <0>         0.0000
     50 H28         3.8157   -4.1378    1.3829 H         1 <0>         0.0000
@<TRIPOS>BOND
     1    1   18 am
     2    1   20 2
     3    2   12 1
     4    2   17 am
     5    2   21 2
     6    3   13 1
     7    3   16 am
     8    3   22 2
     9    4   14 1
    10    5   14 1
    11    6   15 1
    12    7   15 1
    13    8   15 1
    14    9   16 1
    15   10   12 1
    16   10   14 1
    17   11   12 1
    18   11   18 1
    19   13   15 1
    20   13   17 1
    21   18   19 1
    22    1   23 1
    23    4   24 1
    24    4   25 1
    25    4   26 1
    26    5   27 1
    27    5   28 1
    28    5   29 1
    29    6   30 1
    30    6   31 1
    31    6   32 1
    32    7   33 1
    33    7   34 1
    34    7   35 1
    35    8   36 1
    36    8   37 1
    37    8   38 1
    38    9   39 1
    39    9   40 1
    40    9   41 1
    41   10   42 1
    42   10   43 1
    43   11   44 1
    44   11   45 1
    45   12   46 1
    46   13   47 1
    47   14   48 1
    48   16   49 1
    49   17   50 1
@<TRIPOS>MOLECULE
LIGAND
   50    49     0     0     0
SMALL
NO_CHARGES

@<TRIPOS>ATOM
      1 C1          7.2692   -4.4380    4.7238 C.2       1 <0>         0.0000
      2 C2          4.7609   -2.3304    1.0158 C.2       1 <0>         0.0000
      3 C3          1.3743   -3.6105    1.2141 C.2       1 <0>         0.0000
      4 C4          7.9668   -2.9805   -0.7195 C.3       1 <0>         0.0000
      5 C5          7.2752   -5.3485   -1.1277 C.3       1 <0>         0.0000
      6 C6          3.5112   -2.5312   -1.8976 C.3       1 <0>         0.0000
      7 C7          2.5798   -4.7765   -1.3563 C.3       1 <0>         0.0000
      8 C8          1.0336   -2.8618   -1.8044 C.3       1 <0>         0.0000
      9 C9         -0.8899   -3.3247    2.1744 C.3       1 <0>         0.0000
     10 C10         6.4903   -4.2069    0.9698 C.3       1 <0>         0.0000
     11 C11         5.6912   -3.2135    3.1734 C.3       1 <0>         0.0000
     12 C12         5.9953   -2.9363    1.6910 C.3       1 <0>         0.0000
     13 C13         2.4245   -2.8999    0.3599 C.3       1 <0>         0.0000
     14 C14         6.8518   -4.0083   -0.5189 C.3       1 <0>         0.0000
     15 C15         2.3718   -3.2623   -1.1540 C.3       1 <0>         0.0000
     16 N1          0.2223   -2.8565    1.3827 N.am      1 <0>         0.0000
     17 N2          3.6959   -3.2182    0.9688 N.am      1 <0>         0.0000
     18 N3          6.8729   -3.3510    3.9817 N.am      1 <0>         0.0000
     19 O1          7.6925   -2.2394    3.9964 O.3       1 <0>         0.0000
     20 O2          8.2875   -4.5206    5.4041 O.2       1 <0>         0.0000
     21 O3          4.7482   -1.1914    0.5542 O.2       1 <0>         0.0000
     22 O4          1.5569   -4.7218    1.7089 O.2       1 <0>         0.0000
     23 H1          6.5686   -5.2898    4.6670 H         1 <0>         0.0000
     24 H2          8.8753   -3.2848   -0.1883 H         1 <0>         0.0000
     25 H3          7.6713   -1.9951   -0.3441 H         1 <0>         0.0000
     26 H4          8.2323   -2.8793   -1.7758 H         1 <0>         0.0000
     27 H5          8.1599   -5.7527   -0.6240 H         1 <0>         0.0000
     28 H6          6.4698   -6.0859   -1.0440 H         1 <0>         0.0000
     29 H7          7.5125   -5.2358   -2.1909 H         1 <0>         0.0000
     30 H8          3.4182   -1.4447   -1.7906 H         1 <0>         0.0000
     31 H9          3.5120   -2.7653   -2.9677 H         1 <0>         0.0000
     32 H10         4.4918   -2.8203   -1.5020 H         1 <0>         0.0000
     33 H11         1.7979   -5.3538   -0.8491 H         1 <0>         0.0000
     34 H12         3.5395   -5.1121   -0.9494 H         1 <0>         0.0000
     35 H13         2.5489   -5.0416   -2.4191 H         1 <0>         0.0000
     36 H14         0.1926   -3.3589   -1.3070 H         1 <0>         0.0000
     37 H15         0.9978   -3.1431   -2.8622 H         1 <0>         0.0000
     38 H16         0.8573   -1.7835   -1.7352 H         1 <0>         0.0000
     39 H17        -1.5882   -3.8849    1.5471 H         1 <0>         0.0000
     40 H18        -1.4189   -2.4783    2.6208 H         1 <0>         0.0000
     41 H19        -0.5348   -3.9781    2.9759 H         1 <0>         0.0000
     42 H20         7.3727   -4.5944    1.4964 H         1 <0>         0.0000
     43 H21         5.7222   -4.9884    1.0394 H         1 <0>         0.0000
     44 H22         5.0986   -2.3982    3.6018 H         1 <0>         0.0000
     45 H23         5.1177   -4.1388    3.2917 H         1 <0>         0.0000
     46 H24         6.7931   -2.1847    1.6686 H         1 <0>         0.0000
     47 H25         2.3043   -1.8161    0.4837 H         1 <0>         0.0000
     48 H26         5.9671   -3.6628   -1.0661 H         1 <0>         0.0000
     49 H27         0.1595   -1.9470    0.9352 H         1 <0>         0.0000
     50 H28         3.8157   -4.1378    1.3829 H         1 <0>         0.0000
@<TRIPOS>BOND
     1    1   18 am
     2    1   20 2
     3    2   12 1
     4    2   17 am
     5    2   21 2
     6    3   13 1
     7    3   16 am
     8    3   22 2
     9    4   14 1
    10    5   14 1
    11    6   15 1
    12    7   15 1
    13    8   15 1
    14    9   16 1
    15   10   12 1
    16   10   14 1
    17   11   12 1
    18   11   18 1
    19   13   15 1
    20   13   17 1
    21   18   19 1
    22    1   23 1
    23    4   24 1
    24    4   25 1
    25    4   26 1
    26    5   27 1
    27    5   28 1
    28    5   29 1
    29    6   30 1
    30    6   31 1
    31    6   32 1
    32    7   33 1
    33    7   34 1
    34    7   35 1
    35    8   36 1
    36    8   37 1
    37    8   38 1
    38    9   39 1
    39    9   40 1
    40    9   41 1
    41   10   42 1
    42   10   43 1
    43   11   44 1
    44   11   45 1
    45   12   46 1
    46   13   47 1
    47   14   48 1
    48   16   49 1
    49   17   50 1
@<TRIPOS>MOLECULE
LIGAND
   50    49     0     0     0
SMALL
NO_CHARGES

@<TRIPOS>ATOM
      1 C1          6.8494   -5.0043    4.5318 C.2       1 <0>         0.0000
      2 C2          4.7609   -2.3304    1.0158 C.2       1 <0>         0.0000
      3 C3          1.4114   -2.9063    1.5049 C.2       1 <0>         0.0000
      4 C4          8.5547   -3.1178   -0.0742 C.3       1 <0>         0.0000
      5 C5          7.6782   -5.2829   -0.9666 C.3       1 <0>         0.0000
      6 C6          3.1857   -3.8003   -1.8813 C.3       1 <0>         0.0000
      7 C7          1.9543   -5.3076   -0.3278 C.3       1 <0>         0.0000
      8 C8          0.7370   -3.4626   -1.4991 C.3       1 <0>         0.0000
      9 C9          0.5462   -1.5170    3.3628 C.3       1 <0>         0.0000
     10 C10         6.4903   -4.2069    0.9698 C.3       1 <0>         0.0000
     11 C11         5.6912   -3.2135    3.1734 C.3       1 <0>         0.0000
     12 C12         5.9953   -2.9363    1.6910 C.3       1 <0>         0.0000
     13 C13         2.4245   -2.8999    0.3599 C.3       1 <0>         0.0000
     14 C14         7.2936   -3.9469   -0.3237 C.3       1 <0>         0.0000
     15 C15         2.0646   -3.8508   -0.8201 C.3       1 <0>         0.0000
     16 N1          1.4084   -1.7198    2.2232 N.am      1 <0>         0.0000
     17 N2          3.6959   -3.2182    0.9688 N.am      1 <0>         0.0000
     18 N3          6.7994   -3.7930    3.8839 N.am      1 <0>         0.0000
     19 O1          7.9410   -3.0158    3.9021 O.3       1 <0>         0.0000
     20 O2          5.9362   -5.8199    4.6181 O.2       1 <0>         0.0000
     21 O3          4.7482   -1.1914    0.5542 O.2       1 <0>         0.0000
     22 O4          0.6993   -3.8762    1.7607 O.2       1 <0>         0.0000
     23 H1          7.8269   -5.2131    5.0014 H         1 <0>         0.0000
     24 H2          9.2158   -3.6219    0.6392 H         1 <0>         0.0000
     25 H3          8.3079   -2.1320    0.3339 H         1 <0>         0.0000
     26 H4          9.1275   -2.9738   -0.9949 H         1 <0>         0.0000
     27 H5          8.3104   -5.8785   -0.2992 H         1 <0>         0.0000
     28 H6          6.7859   -5.8716   -1.2045 H         1 <0>         0.0000
     29 H7          8.2280   -5.1221   -1.9000 H         1 <0>         0.0000
     30 H8          3.3133   -2.7845   -2.2720 H         1 <0>         0.0000
     31 H9          2.9723   -4.4622   -2.7277 H         1 <0>         0.0000
     32 H10         4.1465   -4.1154   -1.4578 H         1 <0>         0.0000
     33 H11         1.1705   -5.4095    0.4319 H         1 <0>         0.0000
     34 H12         2.8879   -5.6535    0.1281 H         1 <0>         0.0000
     35 H13         1.7055   -5.9859   -1.1517 H         1 <0>         0.0000
     36 H14        -0.0909   -3.4848   -0.7807 H         1 <0>         0.0000
     37 H15         0.4812   -4.1517   -2.3109 H         1 <0>         0.0000
     38 H16         0.7762   -2.4505   -1.9146 H         1 <0>         0.0000
     39 H17        -0.4080   -1.0916    3.0410 H         1 <0>         0.0000
     40 H18         1.0149   -0.8317    4.0742 H         1 <0>         0.0000
     41 H19         0.3553   -2.4685    3.8664 H         1 <0>         0.0000
     42 H20         7.1160   -4.7876    1.6607 H         1 <0>         0.0000
     43 H21         5.6310   -4.8442    0.7228 H         1 <0>         0.0000
     44 H22         5.4249   -2.2852    3.6898 H         1 <0>         0.0000
     45 H23         4.8500   -3.9063    3.2803 H         1 <0>         0.0000
     46 H24         6.7931   -2.1847    1.6686 H         1 <0>         0.0000
     47 H25         2.5279   -1.8729   -0.0129 H         1 <0>         0.0000
     48 H26         6.6656   -3.4052   -1.0405 H         1 <0>         0.0000
     49 H27         2.0322   -0.9706    1.9386 H         1 <0>         0.0000
     50 H28         3.8157   -4.1378    1.3829 H         1 <0>         0.0000
@<TRIPOS>BOND
     1    1   18 am
     2    1   20 2
     3    2   12 1
     4    2   17 am
     5    2   21 2
     6    3   13 1
     7    3   16 am
     8    3   22 2
     9    4   14 1
    10    5   14 1
    11    6   15 1
    12    7   15 1
    13    8   15 1
    14    9   16 1
    15   10   12 1
    16   10   14 1
    17   11   12 1
    18   11   18 1
    19   13   15 1
    20   13   17 1
    21   18   19 1
    22    1   23 1
    23    4   24 1
    24    4   25 1
    25    4   26 1
    26    5   27 1
    27    5   28 1
    28    5   29 1
    29    6   30 1
    30    6   31 1
    31    6   32 1
    32    7   33 1
    33    7   34 1
    34    7   35 1
    35    8   36 1
    36    8   37 1
    37    8   38 1
    38    9   39 1
    39    9   40 1
    40    9   41 1
    41   10   42 1
    42   10   43 1
    43   11   44 1
    44   11   45 1
    45   12   46 1
    46   13   47 1
    47   14   48 1
    48   16   49 1
    49   17   50 1
@<TRIPOS>MOLECULE
LIGAND
   50    49     0     0     0
SMALL
NO_CHARGES

@<TRIPOS>ATOM
      1 C1          9.3378   -3.1321    2.2703 C.2       1 <0>         0.0000
      2 C2          4.7609   -2.3304    1.0158 C.2       1 <0>         0.0000
      3 C3          1.3743   -3.6105    1.2141 C.2       1 <0>         0.0000
      4 C4          5.4286   -5.0551    3.9022 C.3       1 <0>         0.0000
      5 C5          5.1681   -3.1669    5.5205 C.3       1 <0>         0.0000
      6 C6          2.9144   -2.0789   -1.9851 C.3       1 <0>         0.0000
      7 C7          3.2618   -4.4861   -1.4495 C.3       1 <0>         0.0000
      8 C8          0.9399   -3.5730   -1.6309 C.3       1 <0>         0.0000
      9 C9         -0.4638   -3.1822    2.8167 C.3       1 <0>         0.0000
     10 C10         6.0212   -2.6662    3.2096 C.3       1 <0>         0.0000
     11 C11         7.2695   -2.4142    1.0053 C.3       1 <0>         0.0000
     12 C12         5.9953   -2.9363    1.6910 C.3       1 <0>         0.0000
     13 C13         2.4245   -2.8999    0.3599 C.3       1 <0>         0.0000
     14 C14         5.0884   -3.5706    4.0452 C.3       1 <0>         0.0000
     15 C15         2.3718   -3.2623   -1.1540 C.3       1 <0>         0.0000
     16 N1          0.5772   -2.7269    1.9268 N.am      1 <0>         0.0000
     17 N2          3.6959   -3.2182    0.9688 N.am      1 <0>         0.0000
     18 N3          8.4249   -3.2358    1.2479 N.am      1 <0>         0.0000
     19 O1          8.6173   -4.2452    0.3251 O.3       1 <0>         0.0000
     20 O2         10.3153   -3.8531    2.4470 O.2       1 <0>         0.0000
     21 O3          4.7482   -1.1914    0.5542 O.2       1 <0>         0.0000
     22 O4          1.2756   -4.8354    1.2685 O.2       1 <0>         0.0000
     23 H1          9.1239   -2.3049    2.9702 H         1 <0>         0.0000
     24 H2          6.4596   -5.2491    4.2175 H         1 <0>         0.0000
     25 H3          5.3256   -5.3883    2.8641 H         1 <0>         0.0000
     26 H4          4.7804   -5.6761    4.5273 H         1 <0>         0.0000
     27 H5          6.1838   -3.2884    5.9121 H         1 <0>         0.0000
     28 H6          4.8754   -2.1200    5.6540 H         1 <0>         0.0000
     29 H7          4.4947   -3.7797    6.1290 H         1 <0>         0.0000
     30 H8          2.3199   -1.1739   -1.8172 H         1 <0>         0.0000
     31 H9          2.8994   -2.2973   -3.0585 H         1 <0>         0.0000
     32 H10         3.9518   -1.8484   -1.7158 H         1 <0>         0.0000
     33 H11         2.9258   -5.3642   -0.8858 H         1 <0>         0.0000
     34 H12         4.3049   -4.3063   -1.1689 H         1 <0>         0.0000
     35 H13         3.2353   -4.7468   -2.5135 H         1 <0>         0.0000
     36 H14         0.5126   -4.4101   -1.0664 H         1 <0>         0.0000
     37 H15         0.9176   -3.8503   -2.6901 H         1 <0>         0.0000
     38 H16         0.2727   -2.7163   -1.4916 H         1 <0>         0.0000
     39 H17        -1.4067   -3.2811    2.2725 H         1 <0>         0.0000
     40 H18        -0.6020   -2.4684    3.6333 H         1 <0>         0.0000
     41 H19        -0.1993   -4.1542    3.2419 H         1 <0>         0.0000
     42 H20         7.0493   -2.7891    3.5757 H         1 <0>         0.0000
     43 H21         5.7503   -1.6191    3.3985 H         1 <0>         0.0000
     44 H22         7.1283   -2.3661   -0.0797 H         1 <0>         0.0000
     45 H23         7.5195   -1.4064    1.3527 H         1 <0>         0.0000
     46 H24         5.9704   -4.0198    1.5260 H         1 <0>         0.0000
     47 H25         2.3043   -1.8161    0.4837 H         1 <0>         0.0000
     48 H26         4.0519   -3.4254    3.7195 H         1 <0>         0.0000
     49 H27         0.7309   -1.7288    1.8190 H         1 <0>         0.0000
     50 H28         3.8157   -4.1378    1.3829 H         1 <0>         0.0000
@<TRIPOS>BOND
     1    1   18 am
     2    1   20 2
     3    2   12 1
     4    2   17 am
     5    2   21 2
     6    3   13 1
     7    3   16 am
     8    3   22 2
     9    4   14 1
    10    5   14 1
    11    6   15 1
    12    7   15 1
    13    8   15 1
    14    9   16 1
    15   10   12 1
    16   10   14 1
    17   11   12 1
    18   11   18 1
    19   13   15 1
    20   13   17 1
    21   18   19 1
    22    1   23 1
    23    4   24 1
    24    4   25 1
    25    4   26 1
    26    5   27 1
    27    5   28 1
    28    5   29 1
    29    6   30 1
    30    6   31 1
    31    6   32 1
    32    7   33 1
    33    7   34 1
    34    7   35 1
    35    8   36 1
    36    8   37 1
    37    8   38 1
    38    9   39 1
    39    9   40 1
    40    9   41 1
    41   10   42 1
    42   10   43 1
    43   11   44 1
    44   11   45 1
    45   12   46 1
    46   13   47 1
    47   14   48 1
    48   16   49 1
    49   17   50 1
@<TRIPOS>MOLECULE
LIGAND
   50    49     0     0     0
SMALL
NO_CHARGES

@<TRIPOS>ATOM
      1 C1          6.8958   -1.5680    4.6682 C.2       1 <0>         0.0000
      2 C2          4.7609   -2.3304    1.0158 C.2       1 <0>         0.0000
      3 C3          1.4114   -2.9063    1.5049 C.2       1 <0>         0.0000
      4 C4          7.9668   -2.9805   -0.7195 C.3       1 <0>         0.0000
      5 C5          7.2752   -5.3485   -1.1277 C.3       1 <0>         0.0000
      6 C6          1.9716   -3.0346   -2.1281 C.3       1 <0>         0.0000
      7 C7          3.1629   -4.9155   -1.0124 C.3       1 <0>         0.0000
      8 C8          0.7197   -4.5702   -0.6013 C.3       1 <0>         0.0000
      9 C9         -0.5781   -1.7107    2.3670 C.3       1 <0>         0.0000
     10 C10         6.4903   -4.2069    0.9698 C.3       1 <0>         0.0000
     11 C11         5.6912   -3.2135    3.1734 C.3       1 <0>         0.0000
     12 C12         5.9953   -2.9363    1.6910 C.3       1 <0>         0.0000
     13 C13         2.4245   -2.8999    0.3599 C.3       1 <0>         0.0000
     14 C14         6.8518   -4.0083   -0.5189 C.3       1 <0>         0.0000
     15 C15         2.0646   -3.8508   -0.8201 C.3       1 <0>         0.0000
     16 N1          0.4604   -1.9038    1.3835 N.am      1 <0>         0.0000
     17 N2          3.6959   -3.2182    0.9688 N.am      1 <0>         0.0000
     18 N3          5.7903   -2.0436    4.0042 N.am      1 <0>         0.0000
     19 O1          4.6156   -1.3288    4.1337 O.3       1 <0>         0.0000
     20 O2          8.0156   -2.0707    4.6671 O.2       1 <0>         0.0000
     21 O3          4.7482   -1.1914    0.5542 O.2       1 <0>         0.0000
     22 O4          1.4623   -3.7076    2.4368 O.2       1 <0>         0.0000
     23 H1          6.7023   -0.6439    5.2411 H         1 <0>         0.0000
     24 H2          8.8753   -3.2848   -0.1883 H         1 <0>         0.0000
     25 H3          7.6713   -1.9951   -0.3441 H         1 <0>         0.0000
     26 H4          8.2323   -2.8793   -1.7758 H         1 <0>         0.0000
     27 H5          8.1599   -5.7527   -0.6240 H         1 <0>         0.0000
     28 H6          6.4698   -6.0859   -1.0440 H         1 <0>         0.0000
     29 H7          7.5125   -5.2358   -2.1909 H         1 <0>         0.0000
     30 H8          1.2033   -2.2569   -2.0537 H         1 <0>         0.0000
     31 H9          1.7252   -3.6703   -2.9855 H         1 <0>         0.0000
     32 H10         2.9231   -2.5396   -2.3546 H         1 <0>         0.0000
     33 H11         3.2779   -5.5312   -0.1127 H         1 <0>         0.0000
     34 H12         4.1381   -4.4603   -1.2147 H         1 <0>         0.0000
     35 H13         2.9214   -5.5874   -1.8436 H         1 <0>         0.0000
     36 H14         0.7392   -5.1646    0.3197 H         1 <0>         0.0000
     37 H15         0.4883   -5.2543   -1.4246 H         1 <0>         0.0000
     38 H16        -0.1084   -3.8600   -0.5090 H         1 <0>         0.0000
     39 H17        -1.4589   -2.3023    2.1044 H         1 <0>         0.0000
     40 H18        -0.8634   -0.6562    2.4133 H         1 <0>         0.0000
     41 H19        -0.2264   -2.0222    3.3542 H         1 <0>         0.0000
     42 H20         7.3727   -4.5944    1.4964 H         1 <0>         0.0000
     43 H21         5.7222   -4.9884    1.0394 H         1 <0>         0.0000
     44 H22         4.6761   -3.6079    3.2888 H         1 <0>         0.0000
     45 H23         6.3842   -3.9541    3.5861 H         1 <0>         0.0000
     46 H24         6.7931   -2.1847    1.6686 H         1 <0>         0.0000
     47 H25         2.5279   -1.8729   -0.0129 H         1 <0>         0.0000
     48 H26         5.9671   -3.6628   -1.0661 H         1 <0>         0.0000
     49 H27         0.4960   -1.2867    0.5777 H         1 <0>         0.0000
     50 H28         3.8157   -4.1378    1.3829 H         1 <0>         0.0000
@<TRIPOS>BOND
     1    1   18 am
     2    1   20 2
     3    2   12 1
     4    2   17 am
     5    2   21 2
     6    3   13 1
     7    3   16 am
     8    3   22 2
     9    4   14 1
    10    5   14 1
    11    6   15 1
    12    7   15 1
    13    8   15 1
    14    9   16 1
    15   10   12 1
    16   10   14 1
    17   11   12 1
    18   11   18 1
    19   13   15 1
    20   13   17 1
    21   18   19 1
    22    1   23 1
    23    4   24 1
    24    4   25 1
    25    4   26 1
    26    5   27 1
    27    5   28 1
    28    5   29 1
    29    6   30 1
    30    6   31 1
    31    6   32 1
    32    7   33 1
    33    7   34 1
    34    7   35 1
    35    8   36 1
    36    8   37 1
    37    8   38 1
    38    9   39 1
    39    9   40 1
    40    9   41 1
    41   10   42 1
    42   10   43 1
    43   11   44 1
    44   11   45 1
    45   12   46 1
    46   13   47 1
    47   14   48 1
    48   16   49 1
    49   17   50 1
@<TRIPOS>MOLECULE
LIGAND
   50    49     0     0     0
SMALL
NO_CHARGES

@<TRIPOS>ATOM
      1 C1          8.9310   -2.5277    0.0294 C.2       1 <0>         0.0000
      2 C2          4.7609   -2.3304    1.0158 C.2       1 <0>         0.0000
      3 C3          1.4114   -2.9063    1.5049 C.2       1 <0>         0.0000
      4 C4          5.5916   -1.8934    4.5978 C.3       1 <0>         0.0000
      5 C5          7.0929    0.0222    4.0244 C.3       1 <0>         0.0000
      6 C6          1.9716   -3.0346   -2.1281 C.3       1 <0>         0.0000
      7 C7          3.1629   -4.9155   -1.0124 C.3       1 <0>         0.0000
      8 C8          0.7197   -4.5702   -0.6013 C.3       1 <0>         0.0000
      9 C9         -0.5781   -1.7107    2.3670 C.3       1 <0>         0.0000
     10 C10         6.8665   -1.8668    2.3816 C.3       1 <0>         0.0000
     11 C11         6.8055   -3.7427    0.6616 C.3       1 <0>         0.0000
     12 C12         5.9953   -2.9363    1.6910 C.3       1 <0>         0.0000
     13 C13         2.4245   -2.8999    0.3599 C.3       1 <0>         0.0000
     14 C14         6.1374   -1.0321    3.4575 C.3       1 <0>         0.0000
     15 C15         2.0646   -3.8508   -0.8201 C.3       1 <0>         0.0000
     16 N1          0.4604   -1.9038    1.3835 N.am      1 <0>         0.0000
     17 N2          3.6959   -3.2182    0.9688 N.am      1 <0>         0.0000
     18 N3          7.6315   -2.9222   -0.1830 N.am      1 <0>         0.0000
     19 O1          7.0188   -2.4912   -1.3434 O.3       1 <0>         0.0000
     20 O2          9.6275   -2.8139    0.9986 O.2       1 <0>         0.0000
     21 O3          4.7482   -1.1914    0.5542 O.2       1 <0>         0.0000
     22 O4          1.4623   -3.7076    2.4368 O.2       1 <0>         0.0000
     23 H1          9.3375   -1.8953   -0.7795 H         1 <0>         0.0000
     24 H2          6.4006   -2.4456    5.0885 H         1 <0>         0.0000
     25 H3          4.8609   -2.6219    4.2310 H         1 <0>         0.0000
     26 H4          5.1097   -1.2817    5.3659 H         1 <0>         0.0000
     27 H5          7.9623   -0.4436    4.5008 H         1 <0>         0.0000
     28 H6          7.4545    0.6861    3.2321 H         1 <0>         0.0000
     29 H7          6.5886    0.6429    4.7727 H         1 <0>         0.0000
     30 H8          1.2033   -2.2569   -2.0537 H         1 <0>         0.0000
     31 H9          1.7252   -3.6703   -2.9855 H         1 <0>         0.0000
     32 H10         2.9231   -2.5396   -2.3546 H         1 <0>         0.0000
     33 H11         3.2779   -5.5312   -0.1127 H         1 <0>         0.0000
     34 H12         4.1381   -4.4603   -1.2147 H         1 <0>         0.0000
     35 H13         2.9214   -5.5874   -1.8436 H         1 <0>         0.0000
     36 H14         0.7392   -5.1646    0.3197 H         1 <0>         0.0000
     37 H15         0.4883   -5.2543   -1.4246 H         1 <0>         0.0000
     38 H16        -0.1084   -3.8600   -0.5090 H         1 <0>         0.0000
     39 H17        -1.4589   -2.3023    2.1044 H         1 <0>         0.0000
     40 H18        -0.8634   -0.6562    2.4133 H         1 <0>         0.0000
     41 H19        -0.2264   -2.0222    3.3542 H         1 <0>         0.0000
     42 H20         7.7322   -2.3581    2.8457 H         1 <0>         0.0000
     43 H21         7.2705   -1.1813    1.6250 H         1 <0>         0.0000
     44 H22         7.4659   -4.4552    1.1672 H         1 <0>         0.0000
     45 H23         6.1454   -4.3134    0.0001 H         1 <0>         0.0000
     46 H24         5.6479   -3.6501    2.4472 H         1 <0>         0.0000
     47 H25         2.5279   -1.8729   -0.0129 H         1 <0>         0.0000
     48 H26         5.2955   -0.5008    2.9986 H         1 <0>         0.0000
     49 H27         0.4960   -1.2867    0.5777 H         1 <0>         0.0000
     50 H28         3.8157   -4.1378    1.3829 H         1 <0>         0.0000
@<TRIPOS>BOND
     1    1   18 am
     2    1   20 2
     3    2   12 1
     4    2   17 am
     5    2   21 2
     6    3   13 1
     7    3   16 am
     8    3   22 2
     9    4   14 1
    10    5   14 1
    11    6   15 1
    12    7   15 1
    13    8   15 1
    14    9   16 1
    15   10   12 1
    16   10   14 1
    17   11   12 1
    18   11   18 1
    19   13   15 1
    20   13   17 1
    21   18   19 1
    22    1   23 1
    23    4   24 1
    24    4   25 1
    25    4   26 1
    26    5   27 1
    27    5   28 1
    28    5   29 1
    29    6   30 1
    30    6   31 1
    31    6   32 1
    32    7   33 1
    33    7   34 1
    34    7   35 1
    35    8   36 1
    36    8   37 1
    37    8   38 1
    38    9   39 1
    39    9   40 1
    40    9   41 1
    41   10   42 1
    42   10   43 1
    43   11   44 1
    44   11   45 1
    45   12   46 1
    46   13   47 1
    47   14   48 1
    48   16   49 1
    49   17   50 1
@<TRIPOS>MOLECULE
LIGAND
   50    49     0     0     0
SMALL
NO_CHARGES

@<TRIPOS>ATOM
      1 C1          7.4208   -1.8944   -1.4646 C.2       1 <0>         0.0000
      2 C2          4.7609   -2.3304    1.0158 C.2       1 <0>         0.0000
      3 C3          1.4114   -2.9063    1.5049 C.2       1 <0>         0.0000
      4 C4          5.4286   -5.0551    3.9022 C.3       1 <0>         0.0000
      5 C5          5.1681   -3.1669    5.5205 C.3       1 <0>         0.0000
      6 C6          1.9716   -3.0346   -2.1281 C.3       1 <0>         0.0000
      7 C7          3.1629   -4.9155   -1.0124 C.3       1 <0>         0.0000
      8 C8          0.7197   -4.5702   -0.6013 C.3       1 <0>         0.0000
      9 C9         -0.5781   -1.7107    2.3670 C.3       1 <0>         0.0000
     10 C10         6.0212   -2.6662    3.2096 C.3       1 <0>         0.0000
     11 C11         7.2695   -2.4142    1.0053 C.3       1 <0>         0.0000
     12 C12         5.9953   -2.9363    1.6910 C.3       1 <0>         0.0000
     13 C13         2.4245   -2.8999    0.3599 C.3       1 <0>         0.0000
     14 C14         5.0884   -3.5706    4.0452 C.3       1 <0>         0.0000
     15 C15         2.0646   -3.8508   -0.8201 C.3       1 <0>         0.0000
     16 N1          0.4604   -1.9038    1.3835 N.am      1 <0>         0.0000
     17 N2          3.6959   -3.2182    0.9688 N.am      1 <0>         0.0000
     18 N3          7.3436   -2.7497   -0.3914 N.am      1 <0>         0.0000
     19 O1          7.3340   -4.1047   -0.6590 O.3       1 <0>         0.0000
     20 O2          7.4404   -0.6681   -1.4159 O.2       1 <0>         0.0000
     21 O3          4.7482   -1.1914    0.5542 O.2       1 <0>         0.0000
     22 O4          1.4623   -3.7076    2.4368 O.2       1 <0>         0.0000
     23 H1          7.4673   -2.4124   -2.4388 H         1 <0>         0.0000
     24 H2          6.4596   -5.2491    4.2175 H         1 <0>         0.0000
     25 H3          5.3256   -5.3883    2.8641 H         1 <0>         0.0000
     26 H4          4.7804   -5.6761    4.5273 H         1 <0>         0.0000
     27 H5          6.1838   -3.2884    5.9121 H         1 <0>         0.0000
     28 H6          4.8754   -2.1200    5.6540 H         1 <0>         0.0000
     29 H7          4.4947   -3.7797    6.1290 H         1 <0>         0.0000
     30 H8          1.2033   -2.2569   -2.0537 H         1 <0>         0.0000
     31 H9          1.7252   -3.6703   -2.9855 H         1 <0>         0.0000
     32 H10         2.9231   -2.5396   -2.3546 H         1 <0>         0.0000
     33 H11         3.2779   -5.5312   -0.1127 H         1 <0>         0.0000
     34 H12         4.1381   -4.4603   -1.2147 H         1 <0>         0.0000
     35 H13         2.9214   -5.5874   -1.8436 H         1 <0>         0.0000
     36 H14         0.7392   -5.1646    0.3197 H         1 <0>         0.0000
     37 H15         0.4883   -5.2543   -1.4246 H         1 <0>         0.0000
     38 H16        -0.1084   -3.8600   -0.5090 H         1 <0>         0.0000
     39 H17        -1.4589   -2.3023    2.1044 H         1 <0>         0.0000
     40 H18        -0.8634   -0.6562    2.4133 H         1 <0>         0.0000
     41 H19        -0.2264   -2.0222    3.3542 H         1 <0>         0.0000
     42 H20         7.0493   -2.7891    3.5757 H         1 <0>         0.0000
     43 H21         5.7503   -1.6191    3.3985 H         1 <0>         0.0000
     44 H22         7.3249   -1.3230    1.0798 H         1 <0>         0.0000
     45 H23         8.1679   -2.8255    1.4773 H         1 <0>         0.0000
     46 H24         5.9704   -4.0198    1.5260 H         1 <0>         0.0000
     47 H25         2.5279   -1.8729   -0.0129 H         1 <0>         0.0000
     48 H26         4.0519   -3.4254    3.7195 H         1 <0>         0.0000
     49 H27         0.4960   -1.2867    0.5777 H         1 <0>         0.0000
     50 H28         3.8157   -4.1378    1.3829 H         1 <0>         0.0000
@<TRIPOS>BOND
     1    1   18 am
     2    1   20 2
     3    2   12 1
     4    2   17 am
     5    2   21 2
     6    3   13 1
     7    3   16 am
     8    3   22 2
     9    4   14 1
    10    5   14 1
    11    6   15 1
    12    7   15 1
    13    8   15 1
    14    9   16 1
    15   10   12 1
    16   10   14 1
    17   11   12 1
    18   11   18 1
    19   13   15 1
    20   13   17 1
    21   18   19 1
    22    1   23 1
    23    4   24 1
    24    4   25 1
    25    4   26 1
    26    5   27 1
    27    5   28 1
    28    5   29 1
    29    6   30 1
    30    6   31 1
    31    6   32 1
    32    7   33 1
    33    7   34 1
    34    7   35 1
    35    8   36 1
    36    8   37 1
    37    8   38 1
    38    9   39 1
    39    9   40 1
    40    9   41 1
    41   10   42 1
    42   10   43 1
    43   11   44 1
    44   11   45 1
    45   12   46 1
    46   13   47 1
    47   14   48 1
    48   16   49 1
    49   17   50 1
@<TRIPOS>MOLECULE
LIGAND
   50    49     0     0     0
SMALL
NO_CHARGES

@<TRIPOS>ATOM
      1 C1          9.4872   -3.7737    1.2654 C.2       1 <0>         0.0000
      2 C2          4.7609   -2.3304    1.0158 C.2       1 <0>         0.0000
      3 C3          1.4114   -2.9063    1.5049 C.2       1 <0>         0.0000
      4 C4          4.8998   -3.3220    4.5808 C.3       1 <0>         0.0000
      5 C5          5.9126   -1.1117    5.1647 C.3       1 <0>         0.0000
      6 C6          1.9716   -3.0346   -2.1281 C.3       1 <0>         0.0000
      7 C7          3.1629   -4.9155   -1.0124 C.3       1 <0>         0.0000
      8 C8          0.7197   -4.5702   -0.6013 C.3       1 <0>         0.0000
      9 C9         -0.5781   -1.7107    2.3670 C.3       1 <0>         0.0000
     10 C10         6.4405   -2.1272    2.9267 C.3       1 <0>         0.0000
     11 C11         7.1342   -3.0688    0.6654 C.3       1 <0>         0.0000
     12 C12         5.9953   -2.9363    1.6910 C.3       1 <0>         0.0000
     13 C13         2.4245   -2.8999    0.3599 C.3       1 <0>         0.0000
     14 C14         5.3645   -1.9750    4.0244 C.3       1 <0>         0.0000
     15 C15         2.0646   -3.8508   -0.8201 C.3       1 <0>         0.0000
     16 N1          0.4604   -1.9038    1.3835 N.am      1 <0>         0.0000
     17 N2          3.6959   -3.2182    0.9688 N.am      1 <0>         0.0000
     18 N3          8.1489   -4.0093    1.0586 N.am      1 <0>         0.0000
     19 O1          7.6955   -5.3007    1.2443 O.3       1 <0>         0.0000
     20 O2         10.0613   -2.6952    1.1476 O.2       1 <0>         0.0000
     21 O3          4.7482   -1.1914    0.5542 O.2       1 <0>         0.0000
     22 O4          1.4623   -3.7076    2.4368 O.2       1 <0>         0.0000
     23 H1         10.0524   -4.6743    1.5640 H         1 <0>         0.0000
     24 H2          5.7423   -3.8772    5.0075 H         1 <0>         0.0000
     25 H3          4.4501   -3.9417    3.7978 H         1 <0>         0.0000
     26 H4          4.1642   -3.1925    5.3800 H         1 <0>         0.0000
     27 H5          6.7922   -1.5734    5.6261 H         1 <0>         0.0000
     28 H6          6.2016   -0.1209    4.7985 H         1 <0>         0.0000
     29 H7          5.1564   -0.9697    5.9440 H         1 <0>         0.0000
     30 H8          1.2033   -2.2569   -2.0537 H         1 <0>         0.0000
     31 H9          1.7252   -3.6703   -2.9855 H         1 <0>         0.0000
     32 H10         2.9231   -2.5396   -2.3546 H         1 <0>         0.0000
     33 H11         3.2779   -5.5312   -0.1127 H         1 <0>         0.0000
     34 H12         4.1381   -4.4603   -1.2147 H         1 <0>         0.0000
     35 H13         2.9214   -5.5874   -1.8436 H         1 <0>         0.0000
     36 H14         0.7392   -5.1646    0.3197 H         1 <0>         0.0000
     37 H15         0.4883   -5.2543   -1.4246 H         1 <0>         0.0000
     38 H16        -0.1084   -3.8600   -0.5090 H         1 <0>         0.0000
     39 H17        -1.4589   -2.3023    2.1044 H         1 <0>         0.0000
     40 H18        -0.8634   -0.6562    2.4133 H         1 <0>         0.0000
     41 H19        -0.2264   -2.0222    3.3542 H         1 <0>         0.0000
     42 H20         7.3251   -2.6069    3.3666 H         1 <0>         0.0000
     43 H21         6.7588   -1.1249    2.6110 H         1 <0>         0.0000
     44 H22         6.7419   -3.4007   -0.3017 H         1 <0>         0.0000
     45 H23         7.6368   -2.1087    0.5083 H         1 <0>         0.0000
     46 H24         5.7385   -3.9535    2.0094 H         1 <0>         0.0000
     47 H25         2.5279   -1.8729   -0.0129 H         1 <0>         0.0000
     48 H26         4.4913   -1.4577    3.6101 H         1 <0>         0.0000
     49 H27         0.4960   -1.2867    0.5777 H         1 <0>         0.0000
     50 H28         3.8157   -4.1378    1.3829 H         1 <0>         0.0000
@<TRIPOS>BOND
     1    1   18 am
     2    1   20 2
     3    2   12 1
     4    2   17 am
     5    2   21 2
     6    3   13 1
     7    3   16 am
     8    3   22 2
     9    4   14 1
    10    5   14 1
    11    6   15 1
    12    7   15 1
    13    8   15 1
    14    9   16 1
    15   10   12 1
    16   10   14 1
    17   11   12 1
    18   11   18 1
    19   13   15 1
    20   13   17 1
    21   18   19 1
    22    1   23 1
    23    4   24 1
    24    4   25 1
    25    4   26 1
    26    5   27 1
    27    5   28 1
    28    5   29 1
    29    6   30 1
    30    6   31 1
    31    6   32 1
    32    7   33 1
    33    7   34 1
    34    7   35 1
    35    8   36 1
    36    8   37 1
    37    8   38 1
    38    9   39 1
    39    9   40 1
    40    9   41 1
    41   10   42 1
    42   10   43 1
    43   11   44 1
    44   11   45 1
    45   12   46 1
    46   13   47 1
    47   14   48 1
    48   16   49 1
    49   17   50 1
@<TRIPOS>MOLECULE
LIGAND
   50    49     0     0     0
SMALL
NO_CHARGES

@<TRIPOS>ATOM
      1 C1          8.7185   -5.1949    0.9438 C.2       1 <0>         0.0000
      2 C2          4.7609   -2.3304    1.0158 C.2       1 <0>         0.0000
      3 C3          1.4114   -2.9063    1.5049 C.2       1 <0>         0.0000
      4 C4          7.0285   -1.4411    4.2202 C.3       1 <0>         0.0000
      5 C5          8.3048    0.0740    2.6945 C.3       1 <0>         0.0000
      6 C6          3.1857   -3.8003   -1.8813 C.3       1 <0>         0.0000
      7 C7          1.9543   -5.3076   -0.3278 C.3       1 <0>         0.0000
      8 C8          0.7370   -3.4626   -1.4991 C.3       1 <0>         0.0000
      9 C9          1.0123   -1.9958    3.7725 C.3       1 <0>         0.0000
     10 C10         7.1850   -1.9548    1.7203 C.3       1 <0>         0.0000
     11 C11         6.3716   -4.2554    0.9948 C.3       1 <0>         0.0000
     12 C12         5.9953   -2.9363    1.6910 C.3       1 <0>         0.0000
     13 C13         2.4245   -2.8999    0.3599 C.3       1 <0>         0.0000
     14 C14         7.0962   -0.8603    2.8067 C.3       1 <0>         0.0000
     15 C15         2.0646   -3.8508   -0.8201 C.3       1 <0>         0.0000
     16 N1          1.8071   -2.1159    2.5738 N.am      1 <0>         0.0000
     17 N2          3.6959   -3.2182    0.9688 N.am      1 <0>         0.0000
     18 N3          7.5302   -4.8900    1.5637 N.am      1 <0>         0.0000
     19 O1          7.4064   -5.2237    2.8983 O.3       1 <0>         0.0000
     20 O2          9.0034   -4.9733   -0.2294 O.2       1 <0>         0.0000
     21 O3          4.7482   -1.1914    0.5542 O.2       1 <0>         0.0000
     22 O4          0.3728   -3.5647    1.4736 O.2       1 <0>         0.0000
     23 H1          9.4507   -5.6841    1.6104 H         1 <0>         0.0000
     24 H2          7.9109   -2.0554    4.4301 H         1 <0>         0.0000
     25 H3          6.1416   -2.0705    4.3492 H         1 <0>         0.0000
     26 H4          7.0010   -0.6512    4.9764 H         1 <0>         0.0000
     27 H5          9.2434   -0.4691    2.8487 H         1 <0>         0.0000
     28 H6          8.3428    0.5443    1.7062 H         1 <0>         0.0000
     29 H7          8.2495    0.8738    3.4405 H         1 <0>         0.0000
     30 H8          3.3133   -2.7845   -2.2720 H         1 <0>         0.0000
     31 H9          2.9723   -4.4622   -2.7277 H         1 <0>         0.0000
     32 H10         4.1465   -4.1154   -1.4578 H         1 <0>         0.0000
     33 H11         1.1705   -5.4095    0.4319 H         1 <0>         0.0000
     34 H12         2.8879   -5.6535    0.1281 H         1 <0>         0.0000
     35 H13         1.7055   -5.9859   -1.1517 H         1 <0>         0.0000
     36 H14        -0.0909   -3.4848   -0.7807 H         1 <0>         0.0000
     37 H15         0.4812   -4.1517   -2.3109 H         1 <0>         0.0000
     38 H16         0.7762   -2.4505   -1.9146 H         1 <0>         0.0000
     39 H17         0.3100   -1.1637    3.6759 H         1 <0>         0.0000
     40 H18         1.6568   -1.8137    4.6368 H         1 <0>         0.0000
     41 H19         0.4467   -2.9155    3.9448 H         1 <0>         0.0000
     42 H20         8.1124   -2.5237    1.8705 H         1 <0>         0.0000
     43 H21         7.2788   -1.4660    0.7417 H         1 <0>         0.0000
     44 H22         5.5455   -4.9716    1.0590 H         1 <0>         0.0000
     45 H23         6.5888   -4.0932   -0.0661 H         1 <0>         0.0000
     46 H24         5.7229   -3.1911    2.7220 H         1 <0>         0.0000
     47 H25         2.5279   -1.8729   -0.0129 H         1 <0>         0.0000
     48 H26         6.1964   -0.2560    2.6429 H         1 <0>         0.0000
     49 H27         2.6832   -1.6060    2.5111 H         1 <0>         0.0000
     50 H28         3.8157   -4.1378    1.3829 H         1 <0>         0.0000
@<TRIPOS>BOND
     1    1   18 am
     2    1   20 2
     3    2   12 1
     4    2   17 am
     5    2   21 2
     6    3   13 1
     7    3   16 am
     8    3   22 2
     9    4   14 1
    10    5   14 1
    11    6   15 1
    12    7   15 1
    13    8   15 1
    14    9   16 1
    15   10   12 1
    16   10   14 1
    17   11   12 1
    18   11   18 1
    19   13   15 1
    20   13   17 1
    21   18   19 1
    22    1   23 1
    23    4   24 1
    24    4   25 1
    25    4   26 1
    26    5   27 1
    27    5   28 1
    28    5   29 1
    29    6   30 1
    30    6   31 1
    31    6   32 1
    32    7   33 1
    33    7   34 1
    34    7   35 1
    35    8   36 1
    36    8   37 1
    37    8   38 1
    38    9   39 1
    39    9   40 1
    40    9   41 1
    41   10   42 1
    42   10   43 1
    43   11   44 1
    44   11   45 1
    45   12   46 1
    46   13   47 1
    47   14   48 1
    48   16   49 1
    49   17   50 1
@<TRIPOS>MOLECULE
LIGAND
   50    49     0     0     0
SMALL
NO_CHARGES

@<TRIPOS>ATOM
      1 C1          7.5793   -4.4967    4.2605 C.2       1 <0>         0.0000
      2 C2          4.7609   -2.3304    1.0158 C.2       1 <0>         0.0000
      3 C3          1.6238   -2.1763    1.4428 C.2       1 <0>         0.0000
      4 C4          7.9668   -2.9805   -0.7195 C.3       1 <0>         0.0000
      5 C5          7.2752   -5.3485   -1.1277 C.3       1 <0>         0.0000
      6 C6          1.5629   -3.9738   -1.7656 C.3       1 <0>         0.0000
      7 C7          2.5490   -5.4199    0.0058 C.3       1 <0>         0.0000
      8 C8          0.3092   -4.3647    0.3632 C.3       1 <0>         0.0000
      9 C9          0.0532   -0.2939    1.7895 C.3       1 <0>         0.0000
     10 C10         6.4903   -4.2069    0.9698 C.3       1 <0>         0.0000
     11 C11         5.6912   -3.2135    3.1734 C.3       1 <0>         0.0000
     12 C12         5.9953   -2.9363    1.6910 C.3       1 <0>         0.0000
     13 C13         2.4245   -2.8999    0.3599 C.3       1 <0>         0.0000
     14 C14         6.8518   -4.0083   -0.5189 C.3       1 <0>         0.0000
     15 C15         1.7114   -4.1488   -0.2382 C.3       1 <0>         0.0000
     16 N1          0.8675   -1.1285    0.9389 N.am      1 <0>         0.0000
     17 N2          3.6959   -3.2182    0.9688 N.am      1 <0>         0.0000
     18 N3          6.8729   -3.3510    3.9817 N.am      1 <0>         0.0000
     19 O1          7.3330   -2.1714    4.5335 O.3       1 <0>         0.0000
     20 O2          7.3180   -5.6268    3.8588 O.2       1 <0>         0.0000
     21 O3          4.7482   -1.1914    0.5542 O.2       1 <0>         0.0000
     22 O4          1.6741   -2.4892    2.6314 O.2       1 <0>         0.0000
     23 H1          8.4551   -4.3273    4.9116 H         1 <0>         0.0000
     24 H2          8.8753   -3.2848   -0.1883 H         1 <0>         0.0000
     25 H3          7.6713   -1.9951   -0.3441 H         1 <0>         0.0000
     26 H4          8.2323   -2.8793   -1.7758 H         1 <0>         0.0000
     27 H5          8.1599   -5.7527   -0.6240 H         1 <0>         0.0000
     28 H6          6.4698   -6.0859   -1.0440 H         1 <0>         0.0000
     29 H7          7.5125   -5.2358   -2.1909 H         1 <0>         0.0000
     30 H8          0.9734   -3.0815   -2.0047 H         1 <0>         0.0000
     31 H9          1.0695   -4.8366   -2.2261 H         1 <0>         0.0000
     32 H10         2.5408   -3.8638   -2.2486 H         1 <0>         0.0000
     33 H11         2.6906   -5.5997    1.0780 H         1 <0>         0.0000
     34 H12         3.5464   -5.3400   -0.4391 H         1 <0>         0.0000
     35 H13         2.0579   -6.3043   -0.4152 H         1 <0>         0.0000
     36 H14         0.3656   -4.4943    1.4504 H         1 <0>         0.0000
     37 H15        -0.1731   -5.2588   -0.0460 H         1 <0>         0.0000
     38 H16        -0.3478   -3.5097    0.1741 H         1 <0>         0.0000
     39 H17        -0.9522   -0.7139    1.8767 H         1 <0>         0.0000
     40 H18        -0.0213    0.7135    1.3710 H         1 <0>         0.0000
     41 H19         0.4945   -0.2269    2.7876 H         1 <0>         0.0000
     42 H20         7.3727   -4.5944    1.4964 H         1 <0>         0.0000
     43 H21         5.7222   -4.9884    1.0394 H         1 <0>         0.0000
     44 H22         5.0986   -2.3982    3.6018 H         1 <0>         0.0000
     45 H23         5.1177   -4.1388    3.2917 H         1 <0>         0.0000
     46 H24         6.7931   -2.1847    1.6686 H         1 <0>         0.0000
     47 H25         2.6549   -2.1876   -0.4426 H         1 <0>         0.0000
     48 H26         5.9671   -3.6628   -1.0661 H         1 <0>         0.0000
     49 H27         0.8872   -0.9429   -0.0594 H         1 <0>         0.0000
     50 H28         3.8157   -4.1378    1.3829 H         1 <0>         0.0000
@<TRIPOS>BOND
     1    1   18 am
     2    1   20 2
     3    2   12 1
     4    2   17 am
     5    2   21 2
     6    3   13 1
     7    3   16 am
     8    3   22 2
     9    4   14 1
    10    5   14 1
    11    6   15 1
    12    7   15 1
    13    8   15 1
    14    9   16 1
    15   10   12 1
    16   10   14 1
    17   11   12 1
    18   11   18 1
    19   13   15 1
    20   13   17 1
    21   18   19 1
    22    1   23 1
    23    4   24 1
    24    4   25 1
    25    4   26 1
    26    5   27 1
    27    5   28 1
    28    5   29 1
    29    6   30 1
    30    6   31 1
    31    6   32 1
    32    7   33 1
    33    7   34 1
    34    7   35 1
    35    8   36 1
    36    8   37 1
    37    8   38 1
    38    9   39 1
    39    9   40 1
    40    9   41 1
    41   10   42 1
    42   10   43 1
    43   11   44 1
    44   11   45 1
    45   12   46 1
    46   13   47 1
    47   14   48 1
    48   16   49 1
    49   17   50 1
@<TRIPOS>MOLECULE
LIGAND
   50    49     0     0     0
SMALL
NO_CHARGES

@<TRIPOS>ATOM
      1 C1          8.2041   -5.3564    0.7906 C.2       1 <0>         0.0000
      2 C2          4.7609   -2.3304    1.0158 C.2       1 <0>         0.0000
      3 C3          1.4114   -2.9063    1.5049 C.2       1 <0>         0.0000
      4 C4          4.8998   -3.3220    4.5808 C.3       1 <0>         0.0000
      5 C5          5.9126   -1.1117    5.1647 C.3       1 <0>         0.0000
      6 C6          1.9716   -3.0346   -2.1281 C.3       1 <0>         0.0000
      7 C7          3.1629   -4.9155   -1.0124 C.3       1 <0>         0.0000
      8 C8          0.7197   -4.5702   -0.6013 C.3       1 <0>         0.0000
      9 C9         -0.5781   -1.7107    2.3670 C.3       1 <0>         0.0000
     10 C10         6.4405   -2.1272    2.9267 C.3       1 <0>         0.0000
     11 C11         7.1342   -3.0688    0.6654 C.3       1 <0>         0.0000
     12 C12         5.9953   -2.9363    1.6910 C.3       1 <0>         0.0000
     13 C13         2.4245   -2.8999    0.3599 C.3       1 <0>         0.0000
     14 C14         5.3645   -1.9750    4.0244 C.3       1 <0>         0.0000
     15 C15         2.0646   -3.8508   -0.8201 C.3       1 <0>         0.0000
     16 N1          0.4604   -1.9038    1.3835 N.am      1 <0>         0.0000
     17 N2          3.6959   -3.2182    0.9688 N.am      1 <0>         0.0000
     18 N3          8.1489   -4.0093    1.0586 N.am      1 <0>         0.0000
     19 O1          9.1831   -3.4656    1.7950 O.3       1 <0>         0.0000
     20 O2          7.3782   -6.0047    0.1549 O.2       1 <0>         0.0000
     21 O3          4.7482   -1.1914    0.5542 O.2       1 <0>         0.0000
     22 O4          1.4623   -3.7076    2.4368 O.2       1 <0>         0.0000
     23 H1          9.0967   -5.8531    1.2102 H         1 <0>         0.0000
     24 H2          5.7423   -3.8772    5.0075 H         1 <0>         0.0000
     25 H3          4.4501   -3.9417    3.7978 H         1 <0>         0.0000
     26 H4          4.1642   -3.1925    5.3800 H         1 <0>         0.0000
     27 H5          6.7922   -1.5734    5.6261 H         1 <0>         0.0000
     28 H6          6.2016   -0.1209    4.7985 H         1 <0>         0.0000
     29 H7          5.1564   -0.9697    5.9440 H         1 <0>         0.0000
     30 H8          1.2033   -2.2569   -2.0537 H         1 <0>         0.0000
     31 H9          1.7252   -3.6703   -2.9855 H         1 <0>         0.0000
     32 H10         2.9231   -2.5396   -2.3546 H         1 <0>         0.0000
     33 H11         3.2779   -5.5312   -0.1127 H         1 <0>         0.0000
     34 H12         4.1381   -4.4603   -1.2147 H         1 <0>         0.0000
     35 H13         2.9214   -5.5874   -1.8436 H         1 <0>         0.0000
     36 H14         0.7392   -5.1646    0.3197 H         1 <0>         0.0000
     37 H15         0.4883   -5.2543   -1.4246 H         1 <0>         0.0000
     38 H16        -0.1084   -3.8600   -0.5090 H         1 <0>         0.0000
     39 H17        -1.4589   -2.3023    2.1044 H         1 <0>         0.0000
     40 H18        -0.8634   -0.6562    2.4133 H         1 <0>         0.0000
     41 H19        -0.2264   -2.0222    3.3542 H         1 <0>         0.0000
     42 H20         7.3251   -2.6069    3.3666 H         1 <0>         0.0000
     43 H21         6.7588   -1.1249    2.6110 H         1 <0>         0.0000
     44 H22         6.7419   -3.4007   -0.3017 H         1 <0>         0.0000
     45 H23         7.6368   -2.1087    0.5083 H         1 <0>         0.0000
     46 H24         5.7385   -3.9535    2.0094 H         1 <0>         0.0000
     47 H25         2.5279   -1.8729   -0.0129 H         1 <0>         0.0000
     48 H26         4.4913   -1.4577    3.6101 H         1 <0>         0.0000
     49 H27         0.4960   -1.2867    0.5777 H         1 <0>         0.0000
     50 H28         3.8157   -4.1378    1.3829 H         1 <0>         0.0000
@<TRIPOS>BOND
     1    1   18 am
     2    1   20 2
     3    2   12 1
     4    2   17 am
     5    2   21 2
     6    3   13 1
     7    3   16 am
     8    3   22 2
     9    4   14 1
    10    5   14 1
    11    6   15 1
    12    7   15 1
    13    8   15 1
    14    9   16 1
    15   10   12 1
    16   10   14 1
    17   11   12 1
    18   11   18 1
    19   13   15 1
    20   13   17 1
    21   18   19 1
    22    1   23 1
    23    4   24 1
    24    4   25 1
    25    4   26 1
    26    5   27 1
    27    5   28 1
    28    5   29 1
    29    6   30 1
    30    6   31 1
    31    6   32 1
    32    7   33 1
    33    7   34 1
    34    7   35 1
    35    8   36 1
    36    8   37 1
    37    8   38 1
    38    9   39 1
    39    9   40 1
    40    9   41 1
    41   10   42 1
    42   10   43 1
    43   11   44 1
    44   11   45 1
    45   12   46 1
    46   13   47 1
    47   14   48 1
    48   16   49 1
    49   17   50 1
@<TRIPOS>MOLECULE
LIGAND
   50    49     0     0     0
SMALL
NO_CHARGES

@<TRIPOS>ATOM
      1 C1          8.0812   -5.2529    2.2381 C.2       1 <0>         0.0000
      2 C2          4.7609   -2.3304    1.0158 C.2       1 <0>         0.0000
      3 C3          1.3743   -3.6105    1.2141 C.2       1 <0>         0.0000
      4 C4          6.2068   -2.5045    4.7682 C.3       1 <0>         0.0000
      5 C5          7.2536   -0.2835    4.2952 C.3       1 <0>         0.0000
      6 C6          3.5112   -2.5312   -1.8976 C.3       1 <0>         0.0000
      7 C7          2.5798   -4.7765   -1.3563 C.3       1 <0>         0.0000
      8 C8          1.0336   -2.8618   -1.8044 C.3       1 <0>         0.0000
      9 C9          0.6347   -3.9155    3.5573 C.3       1 <0>         0.0000
     10 C10         6.8665   -1.8668    2.3816 C.3       1 <0>         0.0000
     11 C11         6.8055   -3.7427    0.6616 C.3       1 <0>         0.0000
     12 C12         5.9953   -2.9363    1.6910 C.3       1 <0>         0.0000
     13 C13         2.4245   -2.8999    0.3599 C.3       1 <0>         0.0000
     14 C14         6.3308   -1.3748    3.7443 C.3       1 <0>         0.0000
     15 C15         2.3718   -3.2623   -1.1540 C.3       1 <0>         0.0000
     16 N1          1.5064   -3.3313    2.5663 N.am      1 <0>         0.0000
     17 N2          3.6959   -3.2182    0.9688 N.am      1 <0>         0.0000
     18 N3          7.9912   -4.3422    1.2125 N.am      1 <0>         0.0000
     19 O1          9.1704   -3.9351    0.6197 O.3       1 <0>         0.0000
     20 O2          7.1439   -5.7230    2.8761 O.2       1 <0>         0.0000
     21 O3          4.7482   -1.1914    0.5542 O.2       1 <0>         0.0000
     22 O4          0.5249   -4.3627    0.7389 O.2       1 <0>         0.0000
     23 H1          9.1177   -5.5563    2.4686 H         1 <0>         0.0000
     24 H2          7.1779   -2.9820    4.9387 H         1 <0>         0.0000
     25 H3          5.5078   -3.2753    4.4268 H         1 <0>         0.0000
     26 H4          5.8592   -2.1311    5.7358 H         1 <0>         0.0000
     27 H5          8.2679   -0.6642    4.4570 H         1 <0>         0.0000
     28 H6          7.3145    0.5617    3.6015 H         1 <0>         0.0000
     29 H7          6.8785    0.0981    5.2508 H         1 <0>         0.0000
     30 H8          3.4182   -1.4447   -1.7906 H         1 <0>         0.0000
     31 H9          3.5120   -2.7653   -2.9677 H         1 <0>         0.0000
     32 H10         4.4918   -2.8203   -1.5020 H         1 <0>         0.0000
     33 H11         1.7979   -5.3538   -0.8491 H         1 <0>         0.0000
     34 H12         3.5395   -5.1121   -0.9494 H         1 <0>         0.0000
     35 H13         2.5489   -5.0416   -2.4191 H         1 <0>         0.0000
     36 H14         0.1926   -3.3589   -1.3070 H         1 <0>         0.0000
     37 H15         0.9978   -3.1431   -2.8622 H         1 <0>         0.0000
     38 H16         0.8573   -1.7835   -1.7352 H         1 <0>         0.0000
     39 H17        -0.2373   -3.2755    3.7147 H         1 <0>         0.0000
     40 H18         1.1644   -4.0284    4.5071 H         1 <0>         0.0000
     41 H19         0.2935   -4.9003    3.2271 H         1 <0>         0.0000
     42 H20         7.8774   -2.2707    2.5271 H         1 <0>         0.0000
     43 H21         6.9742   -0.9994    1.7170 H         1 <0>         0.0000
     44 H22         6.1970   -4.5521    0.2444 H         1 <0>         0.0000
     45 H23         7.1292   -3.1080   -0.1699 H         1 <0>         0.0000
     46 H24         5.6479   -3.6501    2.4472 H         1 <0>         0.0000
     47 H25         2.3043   -1.8161    0.4837 H         1 <0>         0.0000
     48 H26         5.3389   -0.9289    3.6068 H         1 <0>         0.0000
     49 H27         2.2391   -2.6962    2.8684 H         1 <0>         0.0000
     50 H28         3.8157   -4.1378    1.3829 H         1 <0>         0.0000
@<TRIPOS>BOND
     1    1   18 am
     2    1   20 2
     3    2   12 1
     4    2   17 am
     5    2   21 2
     6    3   13 1
     7    3   16 am
     8    3   22 2
     9    4   14 1
    10    5   14 1
    11    6   15 1
    12    7   15 1
    13    8   15 1
    14    9   16 1
    15   10   12 1
    16   10   14 1
    17   11   12 1
    18   11   18 1
    19   13   15 1
    20   13   17 1
    21   18   19 1
    22    1   23 1
    23    4   24 1
    24    4   25 1
    25    4   26 1
    26    5   27 1
    27    5   28 1
    28    5   29 1
    29    6   30 1
    30    6   31 1
    31    6   32 1
    32    7   33 1
    33    7   34 1
    34    7   35 1
    35    8   36 1
    36    8   37 1
    37    8   38 1
    38    9   39 1
    39    9   40 1
    40    9   41 1
    41   10   42 1
    42   10   43 1
    43   11   44 1
    44   11   45 1
    45   12   46 1
    46   13   47 1
    47   14   48 1
    48   16   49 1
    49   17   50 1
@<TRIPOS>MOLECULE
LIGAND
   50    49     0     0     0
SMALL
NO_CHARGES

@<TRIPOS>ATOM
      1 C1          8.1233   -5.5837    1.7875 C.2       1 <0>         0.0000
      2 C2          4.7609   -2.3304    1.0158 C.2       1 <0>         0.0000
      3 C3          1.6238   -2.1763    1.4428 C.2       1 <0>         0.0000
      4 C4          5.5916   -1.8934    4.5978 C.3       1 <0>         0.0000
      5 C5          7.0929    0.0222    4.0244 C.3       1 <0>         0.0000
      6 C6          2.6382   -4.8237   -1.2732 C.3       1 <0>         0.0000
      7 C7          1.4139   -5.1834    0.8654 C.3       1 <0>         0.0000
      8 C8          0.3871   -3.7862   -0.9377 C.3       1 <0>         0.0000
      9 C9          1.1427   -2.2044    3.8715 C.3       1 <0>         0.0000
     10 C10         6.8665   -1.8668    2.3816 C.3       1 <0>         0.0000
     11 C11         6.8055   -3.7427    0.6616 C.3       1 <0>         0.0000
     12 C12         5.9953   -2.9363    1.6910 C.3       1 <0>         0.0000
     13 C13         2.4245   -2.8999    0.3599 C.3       1 <0>         0.0000
     14 C14         6.1374   -1.0321    3.4575 C.3       1 <0>         0.0000
     15 C15         1.7114   -4.1488   -0.2382 C.3       1 <0>         0.0000
     16 N1          1.8198   -2.7177    2.7048 N.am      1 <0>         0.0000
     17 N2          3.6959   -3.2182    0.9688 N.am      1 <0>         0.0000
     18 N3          7.9912   -4.3422    1.2125 N.am      1 <0>         0.0000
     19 O1          9.1215   -3.5516    1.1422 O.3       1 <0>         0.0000
     20 O2          9.1542   -6.0643    2.2488 O.2       1 <0>         0.0000
     21 O3          4.7482   -1.1914    0.5542 O.2       1 <0>         0.0000
     22 O4          0.8744   -1.2316    1.1999 O.2       1 <0>         0.0000
     23 H1          7.1822   -6.1611    1.8109 H         1 <0>         0.0000
     24 H2          6.4006   -2.4456    5.0885 H         1 <0>         0.0000
     25 H3          4.8609   -2.6219    4.2310 H         1 <0>         0.0000
     26 H4          5.1097   -1.2817    5.3659 H         1 <0>         0.0000
     27 H5          7.9623   -0.4436    4.5008 H         1 <0>         0.0000
     28 H6          7.4545    0.6861    3.2321 H         1 <0>         0.0000
     29 H7          6.5886    0.6429    4.7727 H         1 <0>         0.0000
     30 H8          2.8872   -4.1345   -2.0879 H         1 <0>         0.0000
     31 H9          2.1738   -5.7124   -1.7140 H         1 <0>         0.0000
     32 H10         3.5794   -5.1449   -0.8119 H         1 <0>         0.0000
     33 H11         0.7565   -4.7621    1.6349 H         1 <0>         0.0000
     34 H12         2.3282   -5.5113    1.3711 H         1 <0>         0.0000
     35 H13         0.9158   -6.0685    0.4541 H         1 <0>         0.0000
     36 H14        -0.3050   -3.3025   -0.2384 H         1 <0>         0.0000
     37 H15        -0.1179   -4.6740   -1.3329 H         1 <0>         0.0000
     38 H16         0.5457   -3.0900   -1.7676 H         1 <0>         0.0000
     39 H17         1.7401   -1.4157    4.3360 H         1 <0>         0.0000
     40 H18         0.9874   -3.0042    4.6007 H         1 <0>         0.0000
     41 H19         0.1698   -1.7909    3.5925 H         1 <0>         0.0000
     42 H20         7.7322   -2.3581    2.8457 H         1 <0>         0.0000
     43 H21         7.2705   -1.1813    1.6250 H         1 <0>         0.0000
     44 H22         6.1970   -4.5521    0.2444 H         1 <0>         0.0000
     45 H23         7.1292   -3.1080   -0.1699 H         1 <0>         0.0000
     46 H24         5.6479   -3.6501    2.4472 H         1 <0>         0.0000
     47 H25         2.6549   -2.1876   -0.4426 H         1 <0>         0.0000
     48 H26         5.2955   -0.5008    2.9986 H         1 <0>         0.0000
     49 H27         2.4595   -3.4993    2.8111 H         1 <0>         0.0000
     50 H28         3.8157   -4.1378    1.3829 H         1 <0>         0.0000
@<TRIPOS>BOND
     1    1   18 am
     2    1   20 2
     3    2   12 1
     4    2   17 am
     5    2   21 2
     6    3   13 1
     7    3   16 am
     8    3   22 2
     9    4   14 1
    10    5   14 1
    11    6   15 1
    12    7   15 1
    13    8   15 1
    14    9   16 1
    15   10   12 1
    16   10   14 1
    17   11   12 1
    18   11   18 1
    19   13   15 1
    20   13   17 1
    21   18   19 1
    22    1   23 1
    23    4   24 1
    24    4   25 1
    25    4   26 1
    26    5   27 1
    27    5   28 1
    28    5   29 1
    29    6   30 1
    30    6   31 1
    31    6   32 1
    32    7   33 1
    33    7   34 1
    34    7   35 1
    35    8   36 1
    36    8   37 1
    37    8   38 1
    38    9   39 1
    39    9   40 1
    40    9   41 1
    41   10   42 1
    42   10   43 1
    43   11   44 1
    44   11   45 1
    45   12   46 1
    46   13   47 1
    47   14   48 1
    48   16   49 1
    49   17   50 1
@<TRIPOS>MOLECULE
LIGAND
   50    49     0     0     0
SMALL
NO_CHARGES

@<TRIPOS>ATOM
      1 C1          7.4208   -1.8944   -1.4646 C.2       1 <0>         0.0000
      2 C2          4.7609   -2.3304    1.0158 C.2       1 <0>         0.0000
      3 C3          1.3743   -3.6105    1.2141 C.2       1 <0>         0.0000
      4 C4          5.4286   -5.0551    3.9022 C.3       1 <0>         0.0000
      5 C5          5.1681   -3.1669    5.5205 C.3       1 <0>         0.0000
      6 C6          2.1676   -1.9758   -1.9839 C.3       1 <0>         0.0000
      7 C7          3.7004   -3.9015   -1.6047 C.3       1 <0>         0.0000
      8 C8          1.2246   -4.2374   -1.4817 C.3       1 <0>         0.0000
      9 C9         -0.8899   -3.3247    2.1744 C.3       1 <0>         0.0000
     10 C10         6.0212   -2.6662    3.2096 C.3       1 <0>         0.0000
     11 C11         7.2695   -2.4142    1.0053 C.3       1 <0>         0.0000
     12 C12         5.9953   -2.9363    1.6910 C.3       1 <0>         0.0000
     13 C13         2.4245   -2.8999    0.3599 C.3       1 <0>         0.0000
     14 C14         5.0884   -3.5706    4.0452 C.3       1 <0>         0.0000
     15 C15         2.3718   -3.2623   -1.1540 C.3       1 <0>         0.0000
     16 N1          0.2223   -2.8565    1.3827 N.am      1 <0>         0.0000
     17 N2          3.6959   -3.2182    0.9688 N.am      1 <0>         0.0000
     18 N3          7.3436   -2.7497   -0.3914 N.am      1 <0>         0.0000
     19 O1          7.3340   -4.1047   -0.6590 O.3       1 <0>         0.0000
     20 O2          7.4404   -0.6681   -1.4159 O.2       1 <0>         0.0000
     21 O3          4.7482   -1.1914    0.5542 O.2       1 <0>         0.0000
     22 O4          1.5569   -4.7218    1.7089 O.2       1 <0>         0.0000
     23 H1          7.4673   -2.4124   -2.4388 H         1 <0>         0.0000
     24 H2          6.4596   -5.2491    4.2175 H         1 <0>         0.0000
     25 H3          5.3256   -5.3883    2.8641 H         1 <0>         0.0000
     26 H4          4.7804   -5.6761    4.5273 H         1 <0>         0.0000
     27 H5          6.1838   -3.2884    5.9121 H         1 <0>         0.0000
     28 H6          4.8754   -2.1200    5.6540 H         1 <0>         0.0000
     29 H7          4.4947   -3.7797    6.1290 H         1 <0>         0.0000
     30 H8          1.2340   -1.4727   -1.7080 H         1 <0>         0.0000
     31 H9          2.1309   -2.1882   -3.0579 H         1 <0>         0.0000
     32 H10         2.9869   -1.2657   -1.8218 H         1 <0>         0.0000
     33 H11         3.9033   -4.8245   -1.0490 H         1 <0>         0.0000
     34 H12         4.5507   -3.2327   -1.4344 H         1 <0>         0.0000
     35 H13         3.6755   -4.1564   -2.6701 H         1 <0>         0.0000
     36 H14         1.3286   -5.1690   -0.9131 H         1 <0>         0.0000
     37 H15         1.2119   -4.5047   -2.5437 H         1 <0>         0.0000
     38 H16         0.2480   -3.8124   -1.2284 H         1 <0>         0.0000
     39 H17        -1.5882   -3.8849    1.5471 H         1 <0>         0.0000
     40 H18        -1.4189   -2.4783    2.6208 H         1 <0>         0.0000
     41 H19        -0.5348   -3.9781    2.9759 H         1 <0>         0.0000
     42 H20         7.0493   -2.7891    3.5757 H         1 <0>         0.0000
     43 H21         5.7503   -1.6191    3.3985 H         1 <0>         0.0000
     44 H22         7.3249   -1.3230    1.0798 H         1 <0>         0.0000
     45 H23         8.1679   -2.8255    1.4773 H         1 <0>         0.0000
     46 H24         5.9704   -4.0198    1.5260 H         1 <0>         0.0000
     47 H25         2.3043   -1.8161    0.4837 H         1 <0>         0.0000
     48 H26         4.0519   -3.4254    3.7195 H         1 <0>         0.0000
     49 H27         0.1595   -1.9470    0.9352 H         1 <0>         0.0000
     50 H28         3.8157   -4.1378    1.3829 H         1 <0>         0.0000
@<TRIPOS>BOND
     1    1   18 am
     2    1   20 2
     3    2   12 1
     4    2   17 am
     5    2   21 2
     6    3   13 1
     7    3   16 am
     8    3   22 2
     9    4   14 1
    10    5   14 1
    11    6   15 1
    12    7   15 1
    13    8   15 1
    14    9   16 1
    15   10   12 1
    16   10   14 1
    17   11   12 1
    18   11   18 1
    19   13   15 1
    20   13   17 1
    21   18   19 1
    22    1   23 1
    23    4   24 1
    24    4   25 1
    25    4   26 1
    26    5   27 1
    27    5   28 1
    28    5   29 1
    29    6   30 1
    30    6   31 1
    31    6   32 1
    32    7   33 1
    33    7   34 1
    34    7   35 1
    35    8   36 1
    36    8   37 1
    37    8   38 1
    38    9   39 1
    39    9   40 1
    40    9   41 1
    41   10   42 1
    42   10   43 1
    43   11   44 1
    44   11   45 1
    45   12   46 1
    46   13   47 1
    47   14   48 1
    48   16   49 1
    49   17   50 1
@<TRIPOS>MOLECULE
LIGAND
   50    49     0     0     0
SMALL
NO_CHARGES

@<TRIPOS>ATOM
      1 C1          7.8677   -2.4259    4.1911 C.2       1 <0>         0.0000
      2 C2          4.7609   -2.3304    1.0158 C.2       1 <0>         0.0000
      3 C3          1.3743   -3.6105    1.2141 C.2       1 <0>         0.0000
      4 C4          8.5547   -3.1178   -0.0742 C.3       1 <0>         0.0000
      5 C5          7.6782   -5.2829   -0.9666 C.3       1 <0>         0.0000
      6 C6          3.5112   -2.5312   -1.8976 C.3       1 <0>         0.0000
      7 C7          2.5798   -4.7765   -1.3563 C.3       1 <0>         0.0000
      8 C8          1.0336   -2.8618   -1.8044 C.3       1 <0>         0.0000
      9 C9          0.6347   -3.9155    3.5573 C.3       1 <0>         0.0000
     10 C10         6.4903   -4.2069    0.9698 C.3       1 <0>         0.0000
     11 C11         5.6912   -3.2135    3.1734 C.3       1 <0>         0.0000
     12 C12         5.9953   -2.9363    1.6910 C.3       1 <0>         0.0000
     13 C13         2.4245   -2.8999    0.3599 C.3       1 <0>         0.0000
     14 C14         7.2936   -3.9469   -0.3237 C.3       1 <0>         0.0000
     15 C15         2.3718   -3.2623   -1.1540 C.3       1 <0>         0.0000
     16 N1          1.5064   -3.3313    2.5663 N.am      1 <0>         0.0000
     17 N2          3.6959   -3.2182    0.9688 N.am      1 <0>         0.0000
     18 N3          6.8729   -3.3510    3.9817 N.am      1 <0>         0.0000
     19 O1          6.9987   -4.5727    4.6137 O.3       1 <0>         0.0000
     20 O2          7.9211   -1.2964    3.7137 O.2       1 <0>         0.0000
     21 O3          4.7482   -1.1914    0.5542 O.2       1 <0>         0.0000
     22 O4          0.5249   -4.3627    0.7389 O.2       1 <0>         0.0000
     23 H1          8.6698   -2.7848    4.8601 H         1 <0>         0.0000
     24 H2          9.2158   -3.6219    0.6392 H         1 <0>         0.0000
     25 H3          8.3079   -2.1320    0.3339 H         1 <0>         0.0000
     26 H4          9.1275   -2.9738   -0.9949 H         1 <0>         0.0000
     27 H5          8.3104   -5.8785   -0.2992 H         1 <0>         0.0000
     28 H6          6.7859   -5.8716   -1.2045 H         1 <0>         0.0000
     29 H7          8.2280   -5.1221   -1.9000 H         1 <0>         0.0000
     30 H8          3.4182   -1.4447   -1.7906 H         1 <0>         0.0000
     31 H9          3.5120   -2.7653   -2.9677 H         1 <0>         0.0000
     32 H10         4.4918   -2.8203   -1.5020 H         1 <0>         0.0000
     33 H11         1.7979   -5.3538   -0.8491 H         1 <0>         0.0000
     34 H12         3.5395   -5.1121   -0.9494 H         1 <0>         0.0000
     35 H13         2.5489   -5.0416   -2.4191 H         1 <0>         0.0000
     36 H14         0.1926   -3.3589   -1.3070 H         1 <0>         0.0000
     37 H15         0.9978   -3.1431   -2.8622 H         1 <0>         0.0000
     38 H16         0.8573   -1.7835   -1.7352 H         1 <0>         0.0000
     39 H17        -0.2373   -3.2755    3.7147 H         1 <0>         0.0000
     40 H18         1.1644   -4.0284    4.5071 H         1 <0>         0.0000
     41 H19         0.2935   -4.9003    3.2271 H         1 <0>         0.0000
     42 H20         7.1160   -4.7876    1.6607 H         1 <0>         0.0000
     43 H21         5.6310   -4.8442    0.7228 H         1 <0>         0.0000
     44 H22         5.0986   -2.3982    3.6018 H         1 <0>         0.0000
     45 H23         5.1177   -4.1388    3.2917 H         1 <0>         0.0000
     46 H24         6.7931   -2.1847    1.6686 H         1 <0>         0.0000
     47 H25         2.3043   -1.8161    0.4837 H         1 <0>         0.0000
     48 H26         6.6656   -3.4052   -1.0405 H         1 <0>         0.0000
     49 H27         2.2391   -2.6962    2.8684 H         1 <0>         0.0000
     50 H28         3.8157   -4.1378    1.3829 H         1 <0>         0.0000
@<TRIPOS>BOND
     1    1   18 am
     2    1   20 2
     3    2   12 1
     4    2   17 am
     5    2   21 2
     6    3   13 1
     7    3   16 am
     8    3   22 2
     9    4   14 1
    10    5   14 1
    11    6   15 1
    12    7   15 1
    13    8   15 1
    14    9   16 1
    15   10   12 1
    16   10   14 1
    17   11   12 1
    18   11   18 1
    19   13   15 1
    20   13   17 1
    21   18   19 1
    22    1   23 1
    23    4   24 1
    24    4   25 1
    25    4   26 1
    26    5   27 1
    27    5   28 1
    28    5   29 1
    29    6   30 1
    30    6   31 1
    31    6   32 1
    32    7   33 1
    33    7   34 1
    34    7   35 1
    35    8   36 1
    36    8   37 1
    37    8   38 1
    38    9   39 1
    39    9   40 1
    40    9   41 1
    41   10   42 1
    42   10   43 1
    43   11   44 1
    44   11   45 1
    45   12   46 1
    46   13   47 1
    47   14   48 1
    48   16   49 1
    49   17   50 1
@<TRIPOS>MOLECULE
LIGAND
   50    49     0     0     0
SMALL
NO_CHARGES

@<TRIPOS>ATOM
      1 C1          9.5863   -3.0500    1.2820 C.2       1 <0>         0.0000
      2 C2          4.7609   -2.3304    1.0158 C.2       1 <0>         0.0000
      3 C3          1.4114   -2.9063    1.5049 C.2       1 <0>         0.0000
      4 C4          5.6212   -3.8274    4.6518 C.3       1 <0>         0.0000
      5 C5          6.1055   -1.4698    5.3297 C.3       1 <0>         0.0000
      6 C6          3.1857   -3.8003   -1.8813 C.3       1 <0>         0.0000
      7 C7          1.9543   -5.3076   -0.3278 C.3       1 <0>         0.0000
      8 C8          0.7370   -3.4626   -1.4991 C.3       1 <0>         0.0000
      9 C9          0.8046   -4.1182    3.5770 C.3       1 <0>         0.0000
     10 C10         6.4405   -2.1272    2.9267 C.3       1 <0>         0.0000
     11 C11         7.1342   -3.0688    0.6654 C.3       1 <0>         0.0000
     12 C12         5.9953   -2.9363    1.6910 C.3       1 <0>         0.0000
     13 C13         2.4245   -2.8999    0.3599 C.3       1 <0>         0.0000
     14 C14         5.5959   -2.3669    4.1976 C.3       1 <0>         0.0000
     15 C15         2.0646   -3.8508   -0.8201 C.3       1 <0>         0.0000
     16 N1          1.6532   -3.9132    2.4277 N.am      1 <0>         0.0000
     17 N2          3.6959   -3.2182    0.9688 N.am      1 <0>         0.0000
     18 N3          8.3392   -3.6246    1.2202 N.am      1 <0>         0.0000
     19 O1          8.1975   -4.8927    1.7490 O.3       1 <0>         0.0000
     20 O2          9.8948   -1.9376    0.8648 O.2       1 <0>         0.0000
     21 O3          4.7482   -1.1914    0.5542 O.2       1 <0>         0.0000
     22 O4          0.4758   -2.1105    1.5728 O.2       1 <0>         0.0000
     23 H1         10.3448   -3.6933    1.7620 H         1 <0>         0.0000
     24 H2          6.6467   -4.1510    4.8609 H         1 <0>         0.0000
     25 H3          5.2091   -4.4897    3.8832 H         1 <0>         0.0000
     26 H4          5.0464   -3.9704    5.5714 H         1 <0>         0.0000
     27 H5          7.1480   -1.6962    5.5783 H         1 <0>         0.0000
     28 H6          6.0453   -0.4136    5.0465 H         1 <0>         0.0000
     29 H7          5.5042   -1.6053    6.2348 H         1 <0>         0.0000
     30 H8          3.3133   -2.7845   -2.2720 H         1 <0>         0.0000
     31 H9          2.9723   -4.4622   -2.7277 H         1 <0>         0.0000
     32 H10         4.1465   -4.1154   -1.4578 H         1 <0>         0.0000
     33 H11         1.1705   -5.4095    0.4319 H         1 <0>         0.0000
     34 H12         2.8879   -5.6535    0.1281 H         1 <0>         0.0000
     35 H13         1.7055   -5.9859   -1.1517 H         1 <0>         0.0000
     36 H14        -0.0909   -3.4848   -0.7807 H         1 <0>         0.0000
     37 H15         0.4812   -4.1517   -2.3109 H         1 <0>         0.0000
     38 H16         0.7762   -2.4505   -1.9146 H         1 <0>         0.0000
     39 H17         1.1692   -3.5298    4.4230 H         1 <0>         0.0000
     40 H18         0.7992   -5.1745    3.8593 H         1 <0>         0.0000
     41 H19        -0.2198   -3.8109    3.3501 H         1 <0>         0.0000
     42 H20         7.4883   -2.3678    3.1512 H         1 <0>         0.0000
     43 H21         6.4148   -1.0554    2.6895 H         1 <0>         0.0000
     44 H22         6.8299   -3.7170   -0.1632 H         1 <0>         0.0000
     45 H23         7.4005   -2.0938    0.2440 H         1 <0>         0.0000
     46 H24         5.7385   -3.9535    2.0094 H         1 <0>         0.0000
     47 H25         2.5279   -1.8729   -0.0129 H         1 <0>         0.0000
     48 H26         4.5539   -2.0890    4.0008 H         1 <0>         0.0000
     49 H27         2.4520   -4.5251    2.2903 H         1 <0>         0.0000
     50 H28         3.8157   -4.1378    1.3829 H         1 <0>         0.0000
@<TRIPOS>BOND
     1    1   18 am
     2    1   20 2
     3    2   12 1
     4    2   17 am
     5    2   21 2
     6    3   13 1
     7    3   16 am
     8    3   22 2
     9    4   14 1
    10    5   14 1
    11    6   15 1
    12    7   15 1
    13    8   15 1
    14    9   16 1
    15   10   12 1
    16   10   14 1
    17   11   12 1
    18   11   18 1
    19   13   15 1
    20   13   17 1
    21   18   19 1
    22    1   23 1
    23    4   24 1
    24    4   25 1
    25    4   26 1
    26    5   27 1
    27    5   28 1
    28    5   29 1
    29    6   30 1
    30    6   31 1
    31    6   32 1
    32    7   33 1
    33    7   34 1
    34    7   35 1
    35    8   36 1
    36    8   37 1
    37    8   38 1
    38    9   39 1
    39    9   40 1
    40    9   41 1
    41   10   42 1
    42   10   43 1
    43   11   44 1
    44   11   45 1
    45   12   46 1
    46   13   47 1
    47   14   48 1
    48   16   49 1
    49   17   50 1
@<TRIPOS>MOLECULE
LIGAND
   50    49     0     0     0
SMALL
NO_CHARGES

@<TRIPOS>ATOM
      1 C1          8.9310   -2.5277    0.0294 C.2       1 <0>         0.0000
      2 C2          4.7609   -2.3304    1.0158 C.2       1 <0>         0.0000
      3 C3          1.3743   -3.6105    1.2141 C.2       1 <0>         0.0000
      4 C4          5.5916   -1.8934    4.5978 C.3       1 <0>         0.0000
      5 C5          7.0929    0.0222    4.0244 C.3       1 <0>         0.0000
      6 C6          2.9144   -2.0789   -1.9851 C.3       1 <0>         0.0000
      7 C7          3.2618   -4.4861   -1.4495 C.3       1 <0>         0.0000
      8 C8          0.9399   -3.5730   -1.6309 C.3       1 <0>         0.0000
      9 C9         -0.4638   -3.1822    2.8167 C.3       1 <0>         0.0000
     10 C10         6.8665   -1.8668    2.3816 C.3       1 <0>         0.0000
     11 C11         6.8055   -3.7427    0.6616 C.3       1 <0>         0.0000
     12 C12         5.9953   -2.9363    1.6910 C.3       1 <0>         0.0000
     13 C13         2.4245   -2.8999    0.3599 C.3       1 <0>         0.0000
     14 C14         6.1374   -1.0321    3.4575 C.3       1 <0>         0.0000
     15 C15         2.3718   -3.2623   -1.1540 C.3       1 <0>         0.0000
     16 N1          0.5772   -2.7269    1.9268 N.am      1 <0>         0.0000
     17 N2          3.6959   -3.2182    0.9688 N.am      1 <0>         0.0000
     18 N3          7.6315   -2.9222   -0.1830 N.am      1 <0>         0.0000
     19 O1          7.0188   -2.4912   -1.3434 O.3       1 <0>         0.0000
     20 O2          9.6074   -1.8248   -0.7155 O.2       1 <0>         0.0000
     21 O3          4.7482   -1.1914    0.5542 O.2       1 <0>         0.0000
     22 O4          1.2756   -4.8354    1.2685 O.2       1 <0>         0.0000
     23 H1          9.3580   -2.9072    0.9745 H         1 <0>         0.0000
     24 H2          6.4006   -2.4456    5.0885 H         1 <0>         0.0000
     25 H3          4.8609   -2.6219    4.2310 H         1 <0>         0.0000
     26 H4          5.1097   -1.2817    5.3659 H         1 <0>         0.0000
     27 H5          7.9623   -0.4436    4.5008 H         1 <0>         0.0000
     28 H6          7.4545    0.6861    3.2321 H         1 <0>         0.0000
     29 H7          6.5886    0.6429    4.7727 H         1 <0>         0.0000
     30 H8          2.3199   -1.1739   -1.8172 H         1 <0>         0.0000
     31 H9          2.8994   -2.2973   -3.0585 H         1 <0>         0.0000
     32 H10         3.9518   -1.8484   -1.7158 H         1 <0>         0.0000
     33 H11         2.9258   -5.3642   -0.8858 H         1 <0>         0.0000
     34 H12         4.3049   -4.3063   -1.1689 H         1 <0>         0.0000
     35 H13         3.2353   -4.7468   -2.5135 H         1 <0>         0.0000
     36 H14         0.5126   -4.4101   -1.0664 H         1 <0>         0.0000
     37 H15         0.9176   -3.8503   -2.6901 H         1 <0>         0.0000
     38 H16         0.2727   -2.7163   -1.4916 H         1 <0>         0.0000
     39 H17        -1.4067   -3.2811    2.2725 H         1 <0>         0.0000
     40 H18        -0.6020   -2.4684    3.6333 H         1 <0>         0.0000
     41 H19        -0.1993   -4.1542    3.2419 H         1 <0>         0.0000
     42 H20         7.7322   -2.3581    2.8457 H         1 <0>         0.0000
     43 H21         7.2705   -1.1813    1.6250 H         1 <0>         0.0000
     44 H22         7.4659   -4.4552    1.1672 H         1 <0>         0.0000
     45 H23         6.1454   -4.3134    0.0001 H         1 <0>         0.0000
     46 H24         5.6479   -3.6501    2.4472 H         1 <0>         0.0000
     47 H25         2.3043   -1.8161    0.4837 H         1 <0>         0.0000
     48 H26         5.2955   -0.5008    2.9986 H         1 <0>         0.0000
     49 H27         0.7309   -1.7288    1.8190 H         1 <0>         0.0000
     50 H28         3.8157   -4.1378    1.3829 H         1 <0>         0.0000
@<TRIPOS>BOND
     1    1   18 am
     2    1   20 2
     3    2   12 1
     4    2   17 am
     5    2   21 2
     6    3   13 1
     7    3   16 am
     8    3   22 2
     9    4   14 1
    10    5   14 1
    11    6   15 1
    12    7   15 1
    13    8   15 1
    14    9   16 1
    15   10   12 1
    16   10   14 1
    17   11   12 1
    18   11   18 1
    19   13   15 1
    20   13   17 1
    21   18   19 1
    22    1   23 1
    23    4   24 1
    24    4   25 1
    25    4   26 1
    26    5   27 1
    27    5   28 1
    28    5   29 1
    29    6   30 1
    30    6   31 1
    31    6   32 1
    32    7   33 1
    33    7   34 1
    34    7   35 1
    35    8   36 1
    36    8   37 1
    37    8   38 1
    38    9   39 1
    39    9   40 1
    40    9   41 1
    41   10   42 1
    42   10   43 1
    43   11   44 1
    44   11   45 1
    45   12   46 1
    46   13   47 1
    47   14   48 1
    48   16   49 1
    49   17   50 1
@<TRIPOS>MOLECULE
LIGAND
   50    49     0     0     0
SMALL
NO_CHARGES

@<TRIPOS>ATOM
      1 C1          6.6229   -1.8359    5.0780 C.2       1 <0>         0.0000
      2 C2          4.7609   -2.3304    1.0158 C.2       1 <0>         0.0000
      3 C3          1.6238   -2.1763    1.4428 C.2       1 <0>         0.0000
      4 C4          7.9668   -2.9805   -0.7195 C.3       1 <0>         0.0000
      5 C5          7.2752   -5.3485   -1.1277 C.3       1 <0>         0.0000
      6 C6          2.6382   -4.8237   -1.2732 C.3       1 <0>         0.0000
      7 C7          1.4139   -5.1834    0.8654 C.3       1 <0>         0.0000
      8 C8          0.3871   -3.7862   -0.9377 C.3       1 <0>         0.0000
      9 C9          1.3383    0.0348    2.5199 C.3       1 <0>         0.0000
     10 C10         6.4903   -4.2069    0.9698 C.3       1 <0>         0.0000
     11 C11         5.6912   -3.2135    3.1734 C.3       1 <0>         0.0000
     12 C12         5.9953   -2.9363    1.6910 C.3       1 <0>         0.0000
     13 C13         2.4245   -2.8999    0.3599 C.3       1 <0>         0.0000
     14 C14         6.8518   -4.0083   -0.5189 C.3       1 <0>         0.0000
     15 C15         1.7114   -4.1488   -0.2382 C.3       1 <0>         0.0000
     16 N1          1.9549   -0.8333    1.5455 N.am      1 <0>         0.0000
     17 N2          3.6959   -3.2182    0.9688 N.am      1 <0>         0.0000
     18 N3          5.7903   -2.0436    4.0042 N.am      1 <0>         0.0000
     19 O1          4.9320   -1.0181    3.6586 O.3       1 <0>         0.0000
     20 O2          7.4448   -2.6309    5.5240 O.2       1 <0>         0.0000
     21 O3          4.7482   -1.1914    0.5542 O.2       1 <0>         0.0000
     22 O4          0.7950   -2.7447    2.1522 O.2       1 <0>         0.0000
     23 H1          6.4990   -0.8434    5.5463 H         1 <0>         0.0000
     24 H2          8.8753   -3.2848   -0.1883 H         1 <0>         0.0000
     25 H3          7.6713   -1.9951   -0.3441 H         1 <0>         0.0000
     26 H4          8.2323   -2.8793   -1.7758 H         1 <0>         0.0000
     27 H5          8.1599   -5.7527   -0.6240 H         1 <0>         0.0000
     28 H6          6.4698   -6.0859   -1.0440 H         1 <0>         0.0000
     29 H7          7.5125   -5.2358   -2.1909 H         1 <0>         0.0000
     30 H8          2.8872   -4.1345   -2.0879 H         1 <0>         0.0000
     31 H9          2.1738   -5.7124   -1.7140 H         1 <0>         0.0000
     32 H10         3.5794   -5.1449   -0.8119 H         1 <0>         0.0000
     33 H11         0.7565   -4.7621    1.6349 H         1 <0>         0.0000
     34 H12         2.3282   -5.5113    1.3711 H         1 <0>         0.0000
     35 H13         0.9158   -6.0685    0.4541 H         1 <0>         0.0000
     36 H14        -0.3050   -3.3025   -0.2384 H         1 <0>         0.0000
     37 H15        -0.1179   -4.6740   -1.3329 H         1 <0>         0.0000
     38 H16         0.5457   -3.0900   -1.7676 H         1 <0>         0.0000
     39 H17         0.4402    0.4941    2.0989 H         1 <0>         0.0000
     40 H18         2.0331    0.8259    2.8147 H         1 <0>         0.0000
     41 H19         1.0580   -0.5350    3.4100 H         1 <0>         0.0000
     42 H20         7.3727   -4.5944    1.4964 H         1 <0>         0.0000
     43 H21         5.7222   -4.9884    1.0394 H         1 <0>         0.0000
     44 H22         4.6761   -3.6079    3.2888 H         1 <0>         0.0000
     45 H23         6.3842   -3.9541    3.5861 H         1 <0>         0.0000
     46 H24         6.7931   -2.1847    1.6686 H         1 <0>         0.0000
     47 H25         2.6549   -2.1876   -0.4426 H         1 <0>         0.0000
     48 H26         5.9671   -3.6628   -1.0661 H         1 <0>         0.0000
     49 H27         2.6527   -0.4488    0.9157 H         1 <0>         0.0000
     50 H28         3.8157   -4.1378    1.3829 H         1 <0>         0.0000
@<TRIPOS>BOND
     1    1   18 am
     2    1   20 2
     3    2   12 1
     4    2   17 am
     5    2   21 2
     6    3   13 1
     7    3   16 am
     8    3   22 2
     9    4   14 1
    10    5   14 1
    11    6   15 1
    12    7   15 1
    13    8   15 1
    14    9   16 1
    15   10   12 1
    16   10   14 1
    17   11   12 1
    18   11   18 1
    19   13   15 1
    20   13   17 1
    21   18   19 1
    22    1   23 1
    23    4   24 1
    24    4   25 1
    25    4   26 1
    26    5   27 1
    27    5   28 1
    28    5   29 1
    29    6   30 1
    30    6   31 1
    31    6   32 1
    32    7   33 1
    33    7   34 1
    34    7   35 1
    35    8   36 1
    36    8   37 1
    37    8   38 1
    38    9   39 1
    39    9   40 1
    40    9   41 1
    41   10   42 1
    42   10   43 1
    43   11   44 1
    44   11   45 1
    45   12   46 1
    46   13   47 1
    47   14   48 1
    48   16   49 1
    49   17   50 1
@<TRIPOS>MOLECULE
LIGAND
   50    49     0     0     0
SMALL
NO_CHARGES

@<TRIPOS>ATOM
      1 C1          8.9310   -2.5277    0.0294 C.2       1 <0>         0.0000
      2 C2          4.7609   -2.3304    1.0158 C.2       1 <0>         0.0000
      3 C3          1.3743   -3.6105    1.2141 C.2       1 <0>         0.0000
      4 C4          5.5916   -1.8934    4.5978 C.3       1 <0>         0.0000
      5 C5          7.0929    0.0222    4.0244 C.3       1 <0>         0.0000
      6 C6          3.5112   -2.5312   -1.8976 C.3       1 <0>         0.0000
      7 C7          2.5798   -4.7765   -1.3563 C.3       1 <0>         0.0000
      8 C8          1.0336   -2.8618   -1.8044 C.3       1 <0>         0.0000
      9 C9          0.6347   -3.9155    3.5573 C.3       1 <0>         0.0000
     10 C10         6.8665   -1.8668    2.3816 C.3       1 <0>         0.0000
     11 C11         6.8055   -3.7427    0.6616 C.3       1 <0>         0.0000
     12 C12         5.9953   -2.9363    1.6910 C.3       1 <0>         0.0000
     13 C13         2.4245   -2.8999    0.3599 C.3       1 <0>         0.0000
     14 C14         6.1374   -1.0321    3.4575 C.3       1 <0>         0.0000
     15 C15         2.3718   -3.2623   -1.1540 C.3       1 <0>         0.0000
     16 N1          1.5064   -3.3313    2.5663 N.am      1 <0>         0.0000
     17 N2          3.6959   -3.2182    0.9688 N.am      1 <0>         0.0000
     18 N3          7.6315   -2.9222   -0.1830 N.am      1 <0>         0.0000
     19 O1          7.0188   -2.4912   -1.3434 O.3       1 <0>         0.0000
     20 O2          9.6275   -2.8139    0.9986 O.2       1 <0>         0.0000
     21 O3          4.7482   -1.1914    0.5542 O.2       1 <0>         0.0000
     22 O4          0.5249   -4.3627    0.7389 O.2       1 <0>         0.0000
     23 H1          9.3375   -1.8953   -0.7795 H         1 <0>         0.0000
     24 H2          6.4006   -2.4456    5.0885 H         1 <0>         0.0000
     25 H3          4.8609   -2.6219    4.2310 H         1 <0>         0.0000
     26 H4          5.1097   -1.2817    5.3659 H         1 <0>         0.0000
     27 H5          7.9623   -0.4436    4.5008 H         1 <0>         0.0000
     28 H6          7.4545    0.6861    3.2321 H         1 <0>         0.0000
     29 H7          6.5886    0.6429    4.7727 H         1 <0>         0.0000
     30 H8          3.4182   -1.4447   -1.7906 H         1 <0>         0.0000
     31 H9          3.5120   -2.7653   -2.9677 H         1 <0>         0.0000
     32 H10         4.4918   -2.8203   -1.5020 H         1 <0>         0.0000
     33 H11         1.7979   -5.3538   -0.8491 H         1 <0>         0.0000
     34 H12         3.5395   -5.1121   -0.9494 H         1 <0>         0.0000
     35 H13         2.5489   -5.0416   -2.4191 H         1 <0>         0.0000
     36 H14         0.1926   -3.3589   -1.3070 H         1 <0>         0.0000
     37 H15         0.9978   -3.1431   -2.8622 H         1 <0>         0.0000
     38 H16         0.8573   -1.7835   -1.7352 H         1 <0>         0.0000
     39 H17        -0.2373   -3.2755    3.7147 H         1 <0>         0.0000
     40 H18         1.1644   -4.0284    4.5071 H         1 <0>         0.0000
     41 H19         0.2935   -4.9003    3.2271 H         1 <0>         0.0000
     42 H20         7.7322   -2.3581    2.8457 H         1 <0>         0.0000
     43 H21         7.2705   -1.1813    1.6250 H         1 <0>         0.0000
     44 H22         7.4659   -4.4552    1.1672 H         1 <0>         0.0000
     45 H23         6.1454   -4.3134    0.0001 H         1 <0>         0.0000
     46 H24         5.6479   -3.6501    2.4472 H         1 <0>         0.0000
     47 H25         2.3043   -1.8161    0.4837 H         1 <0>         0.0000
     48 H26         5.2955   -0.5008    2.9986 H         1 <0>         0.0000
     49 H27         2.2391   -2.6962    2.8684 H         1 <0>         0.0000
     50 H28         3.8157   -4.1378    1.3829 H         1 <0>         0.0000
@<TRIPOS>BOND
     1    1   18 am
     2    1   20 2
     3    2   12 1
     4    2   17 am
     5    2   21 2
     6    3   13 1
     7    3   16 am
     8    3   22 2
     9    4   14 1
    10    5   14 1
    11    6   15 1
    12    7   15 1
    13    8   15 1
    14    9   16 1
    15   10   12 1
    16   10   14 1
    17   11   12 1
    18   11   18 1
    19   13   15 1
    20   13   17 1
    21   18   19 1
    22    1   23 1
    23    4   24 1
    24    4   25 1
    25    4   26 1
    26    5   27 1
    27    5   28 1
    28    5   29 1
    29    6   30 1
    30    6   31 1
    31    6   32 1
    32    7   33 1
    33    7   34 1
    34    7   35 1
    35    8   36 1
    36    8   37 1
    37    8   38 1
    38    9   39 1
    39    9   40 1
    40    9   41 1
    41   10   42 1
    42   10   43 1
    43   11   44 1
    44   11   45 1
    45   12   46 1
    46   13   47 1
    47   14   48 1
    48   16   49 1
    49   17   50 1
@<TRIPOS>MOLECULE
LIGAND
   50    49     0     0     0
SMALL
NO_CHARGES

@<TRIPOS>ATOM
      1 C1          7.3043   -2.3507   -1.3895 C.2       1 <0>         0.0000
      2 C2          4.7609   -2.3304    1.0158 C.2       1 <0>         0.0000
      3 C3          1.6238   -2.1763    1.4428 C.2       1 <0>         0.0000
      4 C4          5.5916   -1.8934    4.5978 C.3       1 <0>         0.0000
      5 C5          7.0929    0.0222    4.0244 C.3       1 <0>         0.0000
      6 C6          2.6382   -4.8237   -1.2732 C.3       1 <0>         0.0000
      7 C7          1.4139   -5.1834    0.8654 C.3       1 <0>         0.0000
      8 C8          0.3871   -3.7862   -0.9377 C.3       1 <0>         0.0000
      9 C9          1.1427   -2.2044    3.8715 C.3       1 <0>         0.0000
     10 C10         6.8665   -1.8668    2.3816 C.3       1 <0>         0.0000
     11 C11         6.8055   -3.7427    0.6616 C.3       1 <0>         0.0000
     12 C12         5.9953   -2.9363    1.6910 C.3       1 <0>         0.0000
     13 C13         2.4245   -2.8999    0.3599 C.3       1 <0>         0.0000
     14 C14         6.1374   -1.0321    3.4575 C.3       1 <0>         0.0000
     15 C15         1.7114   -4.1488   -0.2382 C.3       1 <0>         0.0000
     16 N1          1.8198   -2.7177    2.7048 N.am      1 <0>         0.0000
     17 N2          3.6959   -3.2182    0.9688 N.am      1 <0>         0.0000
     18 N3          7.6315   -2.9222   -0.1830 N.am      1 <0>         0.0000
     19 O1          8.9050   -2.6967    0.3017 O.3       1 <0>         0.0000
     20 O2          8.0369   -1.6539   -2.0854 O.2       1 <0>         0.0000
     21 O3          4.7482   -1.1914    0.5542 O.2       1 <0>         0.0000
     22 O4          0.8744   -1.2316    1.1999 O.2       1 <0>         0.0000
     23 H1          6.2729   -2.5716   -1.7167 H         1 <0>         0.0000
     24 H2          6.4006   -2.4456    5.0885 H         1 <0>         0.0000
     25 H3          4.8609   -2.6219    4.2310 H         1 <0>         0.0000
     26 H4          5.1097   -1.2817    5.3659 H         1 <0>         0.0000
     27 H5          7.9623   -0.4436    4.5008 H         1 <0>         0.0000
     28 H6          7.4545    0.6861    3.2321 H         1 <0>         0.0000
     29 H7          6.5886    0.6429    4.7727 H         1 <0>         0.0000
     30 H8          2.8872   -4.1345   -2.0879 H         1 <0>         0.0000
     31 H9          2.1738   -5.7124   -1.7140 H         1 <0>         0.0000
     32 H10         3.5794   -5.1449   -0.8119 H         1 <0>         0.0000
     33 H11         0.7565   -4.7621    1.6349 H         1 <0>         0.0000
     34 H12         2.3282   -5.5113    1.3711 H         1 <0>         0.0000
     35 H13         0.9158   -6.0685    0.4541 H         1 <0>         0.0000
     36 H14        -0.3050   -3.3025   -0.2384 H         1 <0>         0.0000
     37 H15        -0.1179   -4.6740   -1.3329 H         1 <0>         0.0000
     38 H16         0.5457   -3.0900   -1.7676 H         1 <0>         0.0000
     39 H17         1.7401   -1.4157    4.3360 H         1 <0>         0.0000
     40 H18         0.9874   -3.0042    4.6007 H         1 <0>         0.0000
     41 H19         0.1698   -1.7909    3.5925 H         1 <0>         0.0000
     42 H20         7.7322   -2.3581    2.8457 H         1 <0>         0.0000
     43 H21         7.2705   -1.1813    1.6250 H         1 <0>         0.0000
     44 H22         7.4659   -4.4552    1.1672 H         1 <0>         0.0000
     45 H23         6.1454   -4.3134    0.0001 H         1 <0>         0.0000
     46 H24         5.6479   -3.6501    2.4472 H         1 <0>         0.0000
     47 H25         2.6549   -2.1876   -0.4426 H         1 <0>         0.0000
     48 H26         5.2955   -0.5008    2.9986 H         1 <0>         0.0000
     49 H27         2.4595   -3.4993    2.8111 H         1 <0>         0.0000
     50 H28         3.8157   -4.1378    1.3829 H         1 <0>         0.0000
@<TRIPOS>BOND
     1    1   18 am
     2    1   20 2
     3    2   12 1
     4    2   17 am
     5    2   21 2
     6    3   13 1
     7    3   16 am
     8    3   22 2
     9    4   14 1
    10    5   14 1
    11    6   15 1
    12    7   15 1
    13    8   15 1
    14    9   16 1
    15   10   12 1
    16   10   14 1
    17   11   12 1
    18   11   18 1
    19   13   15 1
    20   13   17 1
    21   18   19 1
    22    1   23 1
    23    4   24 1
    24    4   25 1
    25    4   26 1
    26    5   27 1
    27    5   28 1
    28    5   29 1
    29    6   30 1
    30    6   31 1
    31    6   32 1
    32    7   33 1
    33    7   34 1
    34    7   35 1
    35    8   36 1
    36    8   37 1
    37    8   38 1
    38    9   39 1
    39    9   40 1
    40    9   41 1
    41   10   42 1
    42   10   43 1
    43   11   44 1
    44   11   45 1
    45   12   46 1
    46   13   47 1
    47   14   48 1
    48   16   49 1
    49   17   50 1
@<TRIPOS>MOLECULE
LIGAND
   50    49     0     0     0
SMALL
NO_CHARGES

@<TRIPOS>ATOM
      1 C1          8.5765   -5.1397    1.8608 C.2       1 <0>         0.0000
      2 C2          4.7609   -2.3304    1.0158 C.2       1 <0>         0.0000
      3 C3          1.3743   -3.6105    1.2141 C.2       1 <0>         0.0000
      4 C4          7.0285   -1.4411    4.2202 C.3       1 <0>         0.0000
      5 C5          8.3048    0.0740    2.6945 C.3       1 <0>         0.0000
      6 C6          2.9144   -2.0789   -1.9851 C.3       1 <0>         0.0000
      7 C7          3.2618   -4.4861   -1.4495 C.3       1 <0>         0.0000
      8 C8          0.9399   -3.5730   -1.6309 C.3       1 <0>         0.0000
      9 C9         -0.4638   -3.1822    2.8167 C.3       1 <0>         0.0000
     10 C10         7.1850   -1.9548    1.7203 C.3       1 <0>         0.0000
     11 C11         6.3716   -4.2554    0.9948 C.3       1 <0>         0.0000
     12 C12         5.9953   -2.9363    1.6910 C.3       1 <0>         0.0000
     13 C13         2.4245   -2.8999    0.3599 C.3       1 <0>         0.0000
     14 C14         7.0962   -0.8603    2.8067 C.3       1 <0>         0.0000
     15 C15         2.3718   -3.2623   -1.1540 C.3       1 <0>         0.0000
     16 N1          0.5772   -2.7269    1.9268 N.am      1 <0>         0.0000
     17 N2          3.6959   -3.2182    0.9688 N.am      1 <0>         0.0000
     18 N3          7.2036   -5.1082    1.8005 N.am      1 <0>         0.0000
     19 O1          6.5125   -5.9949    2.6028 O.3       1 <0>         0.0000
     20 O2          9.3478   -4.4293    1.2228 O.2       1 <0>         0.0000
     21 O3          4.7482   -1.1914    0.5542 O.2       1 <0>         0.0000
     22 O4          1.2756   -4.8354    1.2685 O.2       1 <0>         0.0000
     23 H1          8.9697   -5.8936    2.5655 H         1 <0>         0.0000
     24 H2          7.9109   -2.0554    4.4301 H         1 <0>         0.0000
     25 H3          6.1416   -2.0705    4.3492 H         1 <0>         0.0000
     26 H4          7.0010   -0.6512    4.9764 H         1 <0>         0.0000
     27 H5          9.2434   -0.4691    2.8487 H         1 <0>         0.0000
     28 H6          8.3428    0.5443    1.7062 H         1 <0>         0.0000
     29 H7          8.2495    0.8738    3.4405 H         1 <0>         0.0000
     30 H8          2.3199   -1.1739   -1.8172 H         1 <0>         0.0000
     31 H9          2.8994   -2.2973   -3.0585 H         1 <0>         0.0000
     32 H10         3.9518   -1.8484   -1.7158 H         1 <0>         0.0000
     33 H11         2.9258   -5.3642   -0.8858 H         1 <0>         0.0000
     34 H12         4.3049   -4.3063   -1.1689 H         1 <0>         0.0000
     35 H13         3.2353   -4.7468   -2.5135 H         1 <0>         0.0000
     36 H14         0.5126   -4.4101   -1.0664 H         1 <0>         0.0000
     37 H15         0.9176   -3.8503   -2.6901 H         1 <0>         0.0000
     38 H16         0.2727   -2.7163   -1.4916 H         1 <0>         0.0000
     39 H17        -1.4067   -3.2811    2.2725 H         1 <0>         0.0000
     40 H18        -0.6020   -2.4684    3.6333 H         1 <0>         0.0000
     41 H19        -0.1993   -4.1542    3.2419 H         1 <0>         0.0000
     42 H20         8.1124   -2.5237    1.8705 H         1 <0>         0.0000
     43 H21         7.2788   -1.4660    0.7417 H         1 <0>         0.0000
     44 H22         5.4713   -4.8257    0.7425 H         1 <0>         0.0000
     45 H23         6.9178   -4.0682    0.0644 H         1 <0>         0.0000
     46 H24         5.7229   -3.1911    2.7220 H         1 <0>         0.0000
     47 H25         2.3043   -1.8161    0.4837 H         1 <0>         0.0000
     48 H26         6.1964   -0.2560    2.6429 H         1 <0>         0.0000
     49 H27         0.7309   -1.7288    1.8190 H         1 <0>         0.0000
     50 H28         3.8157   -4.1378    1.3829 H         1 <0>         0.0000
@<TRIPOS>BOND
     1    1   18 am
     2    1   20 2
     3    2   12 1
     4    2   17 am
     5    2   21 2
     6    3   13 1
     7    3   16 am
     8    3   22 2
     9    4   14 1
    10    5   14 1
    11    6   15 1
    12    7   15 1
    13    8   15 1
    14    9   16 1
    15   10   12 1
    16   10   14 1
    17   11   12 1
    18   11   18 1
    19   13   15 1
    20   13   17 1
    21   18   19 1
    22    1   23 1
    23    4   24 1
    24    4   25 1
    25    4   26 1
    26    5   27 1
    27    5   28 1
    28    5   29 1
    29    6   30 1
    30    6   31 1
    31    6   32 1
    32    7   33 1
    33    7   34 1
    34    7   35 1
    35    8   36 1
    36    8   37 1
    37    8   38 1
    38    9   39 1
    39    9   40 1
    40    9   41 1
    41   10   42 1
    42   10   43 1
    43   11   44 1
    44   11   45 1
    45   12   46 1
    46   13   47 1
    47   14   48 1
    48   16   49 1
    49   17   50 1
@<TRIPOS>MOLECULE
LIGAND
   50    49     0     0     0
SMALL
NO_CHARGES

@<TRIPOS>ATOM
      1 C1          6.8494   -5.0043    4.5318 C.2       1 <0>         0.0000
      2 C2          4.7609   -2.3304    1.0158 C.2       1 <0>         0.0000
      3 C3          1.4114   -2.9063    1.5049 C.2       1 <0>         0.0000
      4 C4          7.9668   -2.9805   -0.7195 C.3       1 <0>         0.0000
      5 C5          7.2752   -5.3485   -1.1277 C.3       1 <0>         0.0000
      6 C6          2.6765   -3.3019   -2.1277 C.3       1 <0>         0.0000
      7 C7          2.6544   -5.2554   -0.5834 C.3       1 <0>         0.0000
      8 C8          0.5425   -3.9869   -1.0173 C.3       1 <0>         0.0000
      9 C9          0.8046   -4.1182    3.5770 C.3       1 <0>         0.0000
     10 C10         6.4903   -4.2069    0.9698 C.3       1 <0>         0.0000
     11 C11         5.6912   -3.2135    3.1734 C.3       1 <0>         0.0000
     12 C12         5.9953   -2.9363    1.6910 C.3       1 <0>         0.0000
     13 C13         2.4245   -2.8999    0.3599 C.3       1 <0>         0.0000
     14 C14         6.8518   -4.0083   -0.5189 C.3       1 <0>         0.0000
     15 C15         2.0646   -3.8508   -0.8201 C.3       1 <0>         0.0000
     16 N1          1.6532   -3.9132    2.4277 N.am      1 <0>         0.0000
     17 N2          3.6959   -3.2182    0.9688 N.am      1 <0>         0.0000
     18 N3          6.7994   -3.7930    3.8839 N.am      1 <0>         0.0000
     19 O1          7.9410   -3.0158    3.9021 O.3       1 <0>         0.0000
     20 O2          5.9362   -5.8199    4.6181 O.2       1 <0>         0.0000
     21 O3          4.7482   -1.1914    0.5542 O.2       1 <0>         0.0000
     22 O4          0.4758   -2.1105    1.5728 O.2       1 <0>         0.0000
     23 H1          7.8269   -5.2131    5.0014 H         1 <0>         0.0000
     24 H2          8.8753   -3.2848   -0.1883 H         1 <0>         0.0000
     25 H3          7.6713   -1.9951   -0.3441 H         1 <0>         0.0000
     26 H4          8.2323   -2.8793   -1.7758 H         1 <0>         0.0000
     27 H5          8.1599   -5.7527   -0.6240 H         1 <0>         0.0000
     28 H6          6.4698   -6.0859   -1.0440 H         1 <0>         0.0000
     29 H7          7.5125   -5.2358   -2.1909 H         1 <0>         0.0000
     30 H8          2.2940   -2.2998   -2.3517 H         1 <0>         0.0000
     31 H9          2.4502   -3.9477   -2.9831 H         1 <0>         0.0000
     32 H10         3.7681   -3.2311   -2.0551 H         1 <0>         0.0000
     33 H11         2.2564   -5.7011    0.3358 H         1 <0>         0.0000
     34 H12         3.7440   -5.2254   -0.4780 H         1 <0>         0.0000
     35 H13         2.4105   -5.9315   -1.4105 H         1 <0>         0.0000
     36 H14         0.0636   -4.3749   -0.1106 H         1 <0>         0.0000
     37 H15         0.3004   -4.6763   -1.8330 H         1 <0>         0.0000
     38 H16         0.0759   -3.0219   -1.2405 H         1 <0>         0.0000
     39 H17         1.1692   -3.5298    4.4230 H         1 <0>         0.0000
     40 H18         0.7992   -5.1745    3.8593 H         1 <0>         0.0000
     41 H19        -0.2198   -3.8109    3.3501 H         1 <0>         0.0000
     42 H20         7.3727   -4.5944    1.4964 H         1 <0>         0.0000
     43 H21         5.7222   -4.9884    1.0394 H         1 <0>         0.0000
     44 H22         5.4249   -2.2852    3.6898 H         1 <0>         0.0000
     45 H23         4.8500   -3.9063    3.2803 H         1 <0>         0.0000
     46 H24         6.7931   -2.1847    1.6686 H         1 <0>         0.0000
     47 H25         2.5279   -1.8729   -0.0129 H         1 <0>         0.0000
     48 H26         5.9671   -3.6628   -1.0661 H         1 <0>         0.0000
     49 H27         2.4520   -4.5251    2.2903 H         1 <0>         0.0000
     50 H28         3.8157   -4.1378    1.3829 H         1 <0>         0.0000
@<TRIPOS>BOND
     1    1   18 am
     2    1   20 2
     3    2   12 1
     4    2   17 am
     5    2   21 2
     6    3   13 1
     7    3   16 am
     8    3   22 2
     9    4   14 1
    10    5   14 1
    11    6   15 1
    12    7   15 1
    13    8   15 1
    14    9   16 1
    15   10   12 1
    16   10   14 1
    17   11   12 1
    18   11   18 1
    19   13   15 1
    20   13   17 1
    21   18   19 1
    22    1   23 1
    23    4   24 1
    24    4   25 1
    25    4   26 1
    26    5   27 1
    27    5   28 1
    28    5   29 1
    29    6   30 1
    30    6   31 1
    31    6   32 1
    32    7   33 1
    33    7   34 1
    34    7   35 1
    35    8   36 1
    36    8   37 1
    37    8   38 1
    38    9   39 1
    39    9   40 1
    40    9   41 1
    41   10   42 1
    42   10   43 1
    43   11   44 1
    44   11   45 1
    45   12   46 1
    46   13   47 1
    47   14   48 1
    48   16   49 1
    49   17   50 1
@<TRIPOS>MOLECULE
LIGAND
   50    49     0     0     0
SMALL
NO_CHARGES

@<TRIPOS>ATOM
      1 C1          8.2041   -5.3564    0.7906 C.2       1 <0>         0.0000
      2 C2          4.7609   -2.3304    1.0158 C.2       1 <0>         0.0000
      3 C3          1.4114   -2.9063    1.5049 C.2       1 <0>         0.0000
      4 C4          4.8998   -3.3220    4.5808 C.3       1 <0>         0.0000
      5 C5          5.9126   -1.1117    5.1647 C.3       1 <0>         0.0000
      6 C6          2.6765   -3.3019   -2.1277 C.3       1 <0>         0.0000
      7 C7          2.6544   -5.2554   -0.5834 C.3       1 <0>         0.0000
      8 C8          0.5425   -3.9869   -1.0173 C.3       1 <0>         0.0000
      9 C9         -0.0359   -1.4126    2.8483 C.3       1 <0>         0.0000
     10 C10         6.4405   -2.1272    2.9267 C.3       1 <0>         0.0000
     11 C11         7.1342   -3.0688    0.6654 C.3       1 <0>         0.0000
     12 C12         5.9953   -2.9363    1.6910 C.3       1 <0>         0.0000
     13 C13         2.4245   -2.8999    0.3599 C.3       1 <0>         0.0000
     14 C14         5.3645   -1.9750    4.0244 C.3       1 <0>         0.0000
     15 C15         2.0646   -3.8508   -0.8201 C.3       1 <0>         0.0000
     16 N1          0.9155   -1.6421    1.7876 N.am      1 <0>         0.0000
     17 N2          3.6959   -3.2182    0.9688 N.am      1 <0>         0.0000
     18 N3          8.1489   -4.0093    1.0586 N.am      1 <0>         0.0000
     19 O1          9.1831   -3.4656    1.7950 O.3       1 <0>         0.0000
     20 O2          9.0883   -6.1312    1.1432 O.2       1 <0>         0.0000
     21 O3          4.7482   -1.1914    0.5542 O.2       1 <0>         0.0000
     22 O4          1.0981   -3.9285    2.1133 O.2       1 <0>         0.0000
     23 H1          7.3469   -5.7237    0.1991 H         1 <0>         0.0000
     24 H2          5.7423   -3.8772    5.0075 H         1 <0>         0.0000
     25 H3          4.4501   -3.9417    3.7978 H         1 <0>         0.0000
     26 H4          4.1642   -3.1925    5.3800 H         1 <0>         0.0000
     27 H5          6.7922   -1.5734    5.6261 H         1 <0>         0.0000
     28 H6          6.2016   -0.1209    4.7985 H         1 <0>         0.0000
     29 H7          5.1564   -0.9697    5.9440 H         1 <0>         0.0000
     30 H8          2.2940   -2.2998   -2.3517 H         1 <0>         0.0000
     31 H9          2.4502   -3.9477   -2.9831 H         1 <0>         0.0000
     32 H10         3.7681   -3.2311   -2.0551 H         1 <0>         0.0000
     33 H11         2.2564   -5.7011    0.3358 H         1 <0>         0.0000
     34 H12         3.7440   -5.2254   -0.4780 H         1 <0>         0.0000
     35 H13         2.4105   -5.9315   -1.4105 H         1 <0>         0.0000
     36 H14         0.0636   -4.3749   -0.1106 H         1 <0>         0.0000
     37 H15         0.3004   -4.6763   -1.8330 H         1 <0>         0.0000
     38 H16         0.0759   -3.0219   -1.2405 H         1 <0>         0.0000
     39 H17        -1.0554   -1.5084    2.4658 H         1 <0>         0.0000
     40 H18         0.0924   -0.4080    3.2604 H         1 <0>         0.0000
     41 H19         0.1090   -2.1415    3.6503 H         1 <0>         0.0000
     42 H20         7.3251   -2.6069    3.3666 H         1 <0>         0.0000
     43 H21         6.7588   -1.1249    2.6110 H         1 <0>         0.0000
     44 H22         6.7419   -3.4007   -0.3017 H         1 <0>         0.0000
     45 H23         7.6368   -2.1087    0.5083 H         1 <0>         0.0000
     46 H24         5.7385   -3.9535    2.0094 H         1 <0>         0.0000
     47 H25         2.5279   -1.8729   -0.0129 H         1 <0>         0.0000
     48 H26         4.4913   -1.4577    3.6101 H         1 <0>         0.0000
     49 H27         1.2316   -0.8537    1.2310 H         1 <0>         0.0000
     50 H28         3.8157   -4.1378    1.3829 H         1 <0>         0.0000
@<TRIPOS>BOND
     1    1   18 am
     2    1   20 2
     3    2   12 1
     4    2   17 am
     5    2   21 2
     6    3   13 1
     7    3   16 am
     8    3   22 2
     9    4   14 1
    10    5   14 1
    11    6   15 1
    12    7   15 1
    13    8   15 1
    14    9   16 1
    15   10   12 1
    16   10   14 1
    17   11   12 1
    18   11   18 1
    19   13   15 1
    20   13   17 1
    21   18   19 1
    22    1   23 1
    23    4   24 1
    24    4   25 1
    25    4   26 1
    26    5   27 1
    27    5   28 1
    28    5   29 1
    29    6   30 1
    30    6   31 1
    31    6   32 1
    32    7   33 1
    33    7   34 1
    34    7   35 1
    35    8   36 1
    36    8   37 1
    37    8   38 1
    38    9   39 1
    39    9   40 1
    40    9   41 1
    41   10   42 1
    42   10   43 1
    43   11   44 1
    44   11   45 1
    45   12   46 1
    46   13   47 1
    47   14   48 1
    48   16   49 1
    49   17   50 1
@<TRIPOS>MOLECULE
LIGAND
   50    49     0     0     0
SMALL
NO_CHARGES

@<TRIPOS>ATOM
      1 C1          6.1780   -1.1790    4.5937 C.2       1 <0>         0.0000
      2 C2          4.7609   -2.3304    1.0158 C.2       1 <0>         0.0000
      3 C3          1.4114   -2.9063    1.5049 C.2       1 <0>         0.0000
      4 C4          7.2107   -3.0163   -1.1753 C.3       1 <0>         0.0000
      5 C5          6.8616   -5.4922   -1.1583 C.3       1 <0>         0.0000
      6 C6          2.6765   -3.3019   -2.1277 C.3       1 <0>         0.0000
      7 C7          2.6544   -5.2554   -0.5834 C.3       1 <0>         0.0000
      8 C8          0.5425   -3.9869   -1.0173 C.3       1 <0>         0.0000
      9 C9         -0.0359   -1.4126    2.8483 C.3       1 <0>         0.0000
     10 C10         6.4903   -4.2069    0.9698 C.3       1 <0>         0.0000
     11 C11         5.6912   -3.2135    3.1734 C.3       1 <0>         0.0000
     12 C12         5.9953   -2.9363    1.6910 C.3       1 <0>         0.0000
     13 C13         2.4245   -2.8999    0.3599 C.3       1 <0>         0.0000
     14 C14         6.3914   -4.1580   -0.5710 C.3       1 <0>         0.0000
     15 C15         2.0646   -3.8508   -0.8201 C.3       1 <0>         0.0000
     16 N1          0.9155   -1.6421    1.7876 N.am      1 <0>         0.0000
     17 N2          3.6959   -3.2182    0.9688 N.am      1 <0>         0.0000
     18 N3          5.3407   -2.0316    3.9142 N.am      1 <0>         0.0000
     19 O1          3.9906   -1.7407    3.9285 O.3       1 <0>         0.0000
     20 O2          7.3975   -1.2810    4.6880 O.2       1 <0>         0.0000
     21 O3          4.7482   -1.1914    0.5542 O.2       1 <0>         0.0000
     22 O4          1.0981   -3.9285    2.1133 O.2       1 <0>         0.0000
     23 H1          5.6512   -0.3403    5.0822 H         1 <0>         0.0000
     24 H2          8.2684   -3.1133   -0.9070 H         1 <0>         0.0000
     25 H3          6.8602   -2.0427   -0.8170 H         1 <0>         0.0000
     26 H4          7.1560   -3.0193   -2.2678 H         1 <0>         0.0000
     27 H5          7.9069   -5.6943   -0.9006 H         1 <0>         0.0000
     28 H6          6.2523   -6.3201   -0.7806 H         1 <0>         0.0000
     29 H7          6.7764   -5.4889   -2.2501 H         1 <0>         0.0000
     30 H8          2.2940   -2.2998   -2.3517 H         1 <0>         0.0000
     31 H9          2.4502   -3.9477   -2.9831 H         1 <0>         0.0000
     32 H10         3.7681   -3.2311   -2.0551 H         1 <0>         0.0000
     33 H11         2.2564   -5.7011    0.3358 H         1 <0>         0.0000
     34 H12         3.7440   -5.2254   -0.4780 H         1 <0>         0.0000
     35 H13         2.4105   -5.9315   -1.4105 H         1 <0>         0.0000
     36 H14         0.0636   -4.3749   -0.1106 H         1 <0>         0.0000
     37 H15         0.3004   -4.6763   -1.8330 H         1 <0>         0.0000
     38 H16         0.0759   -3.0219   -1.2405 H         1 <0>         0.0000
     39 H17        -1.0554   -1.5084    2.4658 H         1 <0>         0.0000
     40 H18         0.0924   -0.4080    3.2604 H         1 <0>         0.0000
     41 H19         0.1090   -2.1415    3.6503 H         1 <0>         0.0000
     42 H20         7.5367   -4.3898    1.2486 H         1 <0>         0.0000
     43 H21         5.9202   -5.0746    1.3271 H         1 <0>         0.0000
     44 H22         4.8556   -3.9151    3.2682 H         1 <0>         0.0000
     45 H23         6.5563   -3.6574    3.6769 H         1 <0>         0.0000
     46 H24         6.7931   -2.1847    1.6686 H         1 <0>         0.0000
     47 H25         2.5279   -1.8729   -0.0129 H         1 <0>         0.0000
     48 H26         5.3446   -4.0194   -0.8651 H         1 <0>         0.0000
     49 H27         1.2316   -0.8537    1.2310 H         1 <0>         0.0000
     50 H28         3.8157   -4.1378    1.3829 H         1 <0>         0.0000
@<TRIPOS>BOND
     1    1   18 am
     2    1   20 2
     3    2   12 1
     4    2   17 am
     5    2   21 2
     6    3   13 1
     7    3   16 am
     8    3   22 2
     9    4   14 1
    10    5   14 1
    11    6   15 1
    12    7   15 1
    13    8   15 1
    14    9   16 1
    15   10   12 1
    16   10   14 1
    17   11   12 1
    18   11   18 1
    19   13   15 1
    20   13   17 1
    21   18   19 1
    22    1   23 1
    23    4   24 1
    24    4   25 1
    25    4   26 1
    26    5   27 1
    27    5   28 1
    28    5   29 1
    29    6   30 1
    30    6   31 1
    31    6   32 1
    32    7   33 1
    33    7   34 1
    34    7   35 1
    35    8   36 1
    36    8   37 1
    37    8   38 1
    38    9   39 1
    39    9   40 1
    40    9   41 1
    41   10   42 1
    42   10   43 1
    43   11   44 1
    44   11   45 1
    45   12   46 1
    46   13   47 1
    47   14   48 1
    48   16   49 1
    49   17   50 1
@<TRIPOS>MOLECULE
LIGAND
   50    49     0     0     0
SMALL
NO_CHARGES

@<TRIPOS>ATOM
      1 C1          6.1780   -1.1790    4.5937 C.2       1 <0>         0.0000
      2 C2          4.7609   -2.3304    1.0158 C.2       1 <0>         0.0000
      3 C3          1.3743   -3.6105    1.2141 C.2       1 <0>         0.0000
      4 C4          7.9668   -2.9805   -0.7195 C.3       1 <0>         0.0000
      5 C5          7.2752   -5.3485   -1.1277 C.3       1 <0>         0.0000
      6 C6          2.9144   -2.0789   -1.9851 C.3       1 <0>         0.0000
      7 C7          3.2618   -4.4861   -1.4495 C.3       1 <0>         0.0000
      8 C8          0.9399   -3.5730   -1.6309 C.3       1 <0>         0.0000
      9 C9         -0.4638   -3.1822    2.8167 C.3       1 <0>         0.0000
     10 C10         6.4903   -4.2069    0.9698 C.3       1 <0>         0.0000
     11 C11         5.6912   -3.2135    3.1734 C.3       1 <0>         0.0000
     12 C12         5.9953   -2.9363    1.6910 C.3       1 <0>         0.0000
     13 C13         2.4245   -2.8999    0.3599 C.3       1 <0>         0.0000
     14 C14         6.8518   -4.0083   -0.5189 C.3       1 <0>         0.0000
     15 C15         2.3718   -3.2623   -1.1540 C.3       1 <0>         0.0000
     16 N1          0.5772   -2.7269    1.9268 N.am      1 <0>         0.0000
     17 N2          3.6959   -3.2182    0.9688 N.am      1 <0>         0.0000
     18 N3          5.3407   -2.0316    3.9142 N.am      1 <0>         0.0000
     19 O1          3.9906   -1.7407    3.9285 O.3       1 <0>         0.0000
     20 O2          7.3975   -1.2810    4.6880 O.2       1 <0>         0.0000
     21 O3          4.7482   -1.1914    0.5542 O.2       1 <0>         0.0000
     22 O4          1.2756   -4.8354    1.2685 O.2       1 <0>         0.0000
     23 H1          5.6512   -0.3403    5.0822 H         1 <0>         0.0000
     24 H2          8.8753   -3.2848   -0.1883 H         1 <0>         0.0000
     25 H3          7.6713   -1.9951   -0.3441 H         1 <0>         0.0000
     26 H4          8.2323   -2.8793   -1.7758 H         1 <0>         0.0000
     27 H5          8.1599   -5.7527   -0.6240 H         1 <0>         0.0000
     28 H6          6.4698   -6.0859   -1.0440 H         1 <0>         0.0000
     29 H7          7.5125   -5.2358   -2.1909 H         1 <0>         0.0000
     30 H8          2.3199   -1.1739   -1.8172 H         1 <0>         0.0000
     31 H9          2.8994   -2.2973   -3.0585 H         1 <0>         0.0000
     32 H10         3.9518   -1.8484   -1.7158 H         1 <0>         0.0000
     33 H11         2.9258   -5.3642   -0.8858 H         1 <0>         0.0000
     34 H12         4.3049   -4.3063   -1.1689 H         1 <0>         0.0000
     35 H13         3.2353   -4.7468   -2.5135 H         1 <0>         0.0000
     36 H14         0.5126   -4.4101   -1.0664 H         1 <0>         0.0000
     37 H15         0.9176   -3.8503   -2.6901 H         1 <0>         0.0000
     38 H16         0.2727   -2.7163   -1.4916 H         1 <0>         0.0000
     39 H17        -1.4067   -3.2811    2.2725 H         1 <0>         0.0000
     40 H18        -0.6020   -2.4684    3.6333 H         1 <0>         0.0000
     41 H19        -0.1993   -4.1542    3.2419 H         1 <0>         0.0000
     42 H20         7.3727   -4.5944    1.4964 H         1 <0>         0.0000
     43 H21         5.7222   -4.9884    1.0394 H         1 <0>         0.0000
     44 H22         4.8556   -3.9151    3.2682 H         1 <0>         0.0000
     45 H23         6.5563   -3.6574    3.6769 H         1 <0>         0.0000
     46 H24         6.7931   -2.1847    1.6686 H         1 <0>         0.0000
     47 H25         2.3043   -1.8161    0.4837 H         1 <0>         0.0000
     48 H26         5.9671   -3.6628   -1.0661 H         1 <0>         0.0000
     49 H27         0.7309   -1.7288    1.8190 H         1 <0>         0.0000
     50 H28         3.8157   -4.1378    1.3829 H         1 <0>         0.0000
@<TRIPOS>BOND
     1    1   18 am
     2    1   20 2
     3    2   12 1
     4    2   17 am
     5    2   21 2
     6    3   13 1
     7    3   16 am
     8    3   22 2
     9    4   14 1
    10    5   14 1
    11    6   15 1
    12    7   15 1
    13    8   15 1
    14    9   16 1
    15   10   12 1
    16   10   14 1
    17   11   12 1
    18   11   18 1
    19   13   15 1
    20   13   17 1
    21   18   19 1
    22    1   23 1
    23    4   24 1
    24    4   25 1
    25    4   26 1
    26    5   27 1
    27    5   28 1
    28    5   29 1
    29    6   30 1
    30    6   31 1
    31    6   32 1
    32    7   33 1
    33    7   34 1
    34    7   35 1
    35    8   36 1
    36    8   37 1
    37    8   38 1
    38    9   39 1
    39    9   40 1
    40    9   41 1
    41   10   42 1
    42   10   43 1
    43   11   44 1
    44   11   45 1
    45   12   46 1
    46   13   47 1
    47   14   48 1
    48   16   49 1
    49   17   50 1
@<TRIPOS>MOLECULE
LIGAND
   50    49     0     0     0
SMALL
NO_CHARGES

@<TRIPOS>ATOM
      1 C1          9.5089   -2.2247    2.1640 C.2       1 <0>         0.0000
      2 C2          4.7609   -2.3304    1.0158 C.2       1 <0>         0.0000
      3 C3          1.3743   -3.6105    1.2141 C.2       1 <0>         0.0000
      4 C4          5.4286   -5.0551    3.9022 C.3       1 <0>         0.0000
      5 C5          5.1681   -3.1669    5.5205 C.3       1 <0>         0.0000
      6 C6          3.5112   -2.5312   -1.8976 C.3       1 <0>         0.0000
      7 C7          2.5798   -4.7765   -1.3563 C.3       1 <0>         0.0000
      8 C8          1.0336   -2.8618   -1.8044 C.3       1 <0>         0.0000
      9 C9          0.6347   -3.9155    3.5573 C.3       1 <0>         0.0000
     10 C10         6.0212   -2.6662    3.2096 C.3       1 <0>         0.0000
     11 C11         7.2695   -2.4142    1.0053 C.3       1 <0>         0.0000
     12 C12         5.9953   -2.9363    1.6910 C.3       1 <0>         0.0000
     13 C13         2.4245   -2.8999    0.3599 C.3       1 <0>         0.0000
     14 C14         5.0884   -3.5706    4.0452 C.3       1 <0>         0.0000
     15 C15         2.3718   -3.2623   -1.1540 C.3       1 <0>         0.0000
     16 N1          1.5064   -3.3313    2.5663 N.am      1 <0>         0.0000
     17 N2          3.6959   -3.2182    0.9688 N.am      1 <0>         0.0000
     18 N3          8.4808   -2.9296    1.5848 N.am      1 <0>         0.0000
     19 O1          8.6000   -4.3050    1.5405 O.3       1 <0>         0.0000
     20 O2          9.5729   -1.0054    2.2897 O.2       1 <0>         0.0000
     21 O3          4.7482   -1.1914    0.5542 O.2       1 <0>         0.0000
     22 O4          0.5249   -4.3627    0.7389 O.2       1 <0>         0.0000
     23 H1         10.3290   -2.8651    2.5342 H         1 <0>         0.0000
     24 H2          6.4596   -5.2491    4.2175 H         1 <0>         0.0000
     25 H3          5.3256   -5.3883    2.8641 H         1 <0>         0.0000
     26 H4          4.7804   -5.6761    4.5273 H         1 <0>         0.0000
     27 H5          6.1838   -3.2884    5.9121 H         1 <0>         0.0000
     28 H6          4.8754   -2.1200    5.6540 H         1 <0>         0.0000
     29 H7          4.4947   -3.7797    6.1290 H         1 <0>         0.0000
     30 H8          3.4182   -1.4447   -1.7906 H         1 <0>         0.0000
     31 H9          3.5120   -2.7653   -2.9677 H         1 <0>         0.0000
     32 H10         4.4918   -2.8203   -1.5020 H         1 <0>         0.0000
     33 H11         1.7979   -5.3538   -0.8491 H         1 <0>         0.0000
     34 H12         3.5395   -5.1121   -0.9494 H         1 <0>         0.0000
     35 H13         2.5489   -5.0416   -2.4191 H         1 <0>         0.0000
     36 H14         0.1926   -3.3589   -1.3070 H         1 <0>         0.0000
     37 H15         0.9978   -3.1431   -2.8622 H         1 <0>         0.0000
     38 H16         0.8573   -1.7835   -1.7352 H         1 <0>         0.0000
     39 H17        -0.2373   -3.2755    3.7147 H         1 <0>         0.0000
     40 H18         1.1644   -4.0284    4.5071 H         1 <0>         0.0000
     41 H19         0.2935   -4.9003    3.2271 H         1 <0>         0.0000
     42 H20         7.0493   -2.7891    3.5757 H         1 <0>         0.0000
     43 H21         5.7503   -1.6191    3.3985 H         1 <0>         0.0000
     44 H22         7.2745   -2.6901   -0.0546 H         1 <0>         0.0000
     45 H23         7.3301   -1.3226    1.0647 H         1 <0>         0.0000
     46 H24         5.9704   -4.0198    1.5260 H         1 <0>         0.0000
     47 H25         2.3043   -1.8161    0.4837 H         1 <0>         0.0000
     48 H26         4.0519   -3.4254    3.7195 H         1 <0>         0.0000
     49 H27         2.2391   -2.6962    2.8684 H         1 <0>         0.0000
     50 H28         3.8157   -4.1378    1.3829 H         1 <0>         0.0000
@<TRIPOS>BOND
     1    1   18 am
     2    1   20 2
     3    2   12 1
     4    2   17 am
     5    2   21 2
     6    3   13 1
     7    3   16 am
     8    3   22 2
     9    4   14 1
    10    5   14 1
    11    6   15 1
    12    7   15 1
    13    8   15 1
    14    9   16 1
    15   10   12 1
    16   10   14 1
    17   11   12 1
    18   11   18 1
    19   13   15 1
    20   13   17 1
    21   18   19 1
    22    1   23 1
    23    4   24 1
    24    4   25 1
    25    4   26 1
    26    5   27 1
    27    5   28 1
    28    5   29 1
    29    6   30 1
    30    6   31 1
    31    6   32 1
    32    7   33 1
    33    7   34 1
    34    7   35 1
    35    8   36 1
    36    8   37 1
    37    8   38 1
    38    9   39 1
    39    9   40 1
    40    9   41 1
    41   10   42 1
    42   10   43 1
    43   11   44 1
    44   11   45 1
    45   12   46 1
    46   13   47 1
    47   14   48 1
    48   16   49 1
    49   17   50 1
@<TRIPOS>MOLECULE
LIGAND
   50    49     0     0     0
SMALL
NO_CHARGES

@<TRIPOS>ATOM
      1 C1          6.8102   -6.0806    2.6888 C.2       1 <0>         0.0000
      2 C2          4.7609   -2.3304    1.0158 C.2       1 <0>         0.0000
      3 C3          1.3743   -3.6105    1.2141 C.2       1 <0>         0.0000
      4 C4          7.0285   -1.4411    4.2202 C.3       1 <0>         0.0000
      5 C5          8.3048    0.0740    2.6945 C.3       1 <0>         0.0000
      6 C6          2.9144   -2.0789   -1.9851 C.3       1 <0>         0.0000
      7 C7          3.2618   -4.4861   -1.4495 C.3       1 <0>         0.0000
      8 C8          0.9399   -3.5730   -1.6309 C.3       1 <0>         0.0000
      9 C9         -0.8899   -3.3247    2.1744 C.3       1 <0>         0.0000
     10 C10         7.1850   -1.9548    1.7203 C.3       1 <0>         0.0000
     11 C11         6.3716   -4.2554    0.9948 C.3       1 <0>         0.0000
     12 C12         5.9953   -2.9363    1.6910 C.3       1 <0>         0.0000
     13 C13         2.4245   -2.8999    0.3599 C.3       1 <0>         0.0000
     14 C14         7.0962   -0.8603    2.8067 C.3       1 <0>         0.0000
     15 C15         2.3718   -3.2623   -1.1540 C.3       1 <0>         0.0000
     16 N1          0.2223   -2.8565    1.3827 N.am      1 <0>         0.0000
     17 N2          3.6959   -3.2182    0.9688 N.am      1 <0>         0.0000
     18 N3          7.2036   -5.1082    1.8005 N.am      1 <0>         0.0000
     19 O1          8.5605   -4.9037    1.6429 O.3       1 <0>         0.0000
     20 O2          5.6544   -6.3968    2.9544 O.2       1 <0>         0.0000
     21 O3          4.7482   -1.1914    0.5542 O.2       1 <0>         0.0000
     22 O4          1.5569   -4.7218    1.7089 O.2       1 <0>         0.0000
     23 H1          7.6541   -6.5946    3.1821 H         1 <0>         0.0000
     24 H2          7.9109   -2.0554    4.4301 H         1 <0>         0.0000
     25 H3          6.1416   -2.0705    4.3492 H         1 <0>         0.0000
     26 H4          7.0010   -0.6512    4.9764 H         1 <0>         0.0000
     27 H5          9.2434   -0.4691    2.8487 H         1 <0>         0.0000
     28 H6          8.3428    0.5443    1.7062 H         1 <0>         0.0000
     29 H7          8.2495    0.8738    3.4405 H         1 <0>         0.0000
     30 H8          2.3199   -1.1739   -1.8172 H         1 <0>         0.0000
     31 H9          2.8994   -2.2973   -3.0585 H         1 <0>         0.0000
     32 H10         3.9518   -1.8484   -1.7158 H         1 <0>         0.0000
     33 H11         2.9258   -5.3642   -0.8858 H         1 <0>         0.0000
     34 H12         4.3049   -4.3063   -1.1689 H         1 <0>         0.0000
     35 H13         3.2353   -4.7468   -2.5135 H         1 <0>         0.0000
     36 H14         0.5126   -4.4101   -1.0664 H         1 <0>         0.0000
     37 H15         0.9176   -3.8503   -2.6901 H         1 <0>         0.0000
     38 H16         0.2727   -2.7163   -1.4916 H         1 <0>         0.0000
     39 H17        -1.5882   -3.8849    1.5471 H         1 <0>         0.0000
     40 H18        -1.4189   -2.4783    2.6208 H         1 <0>         0.0000
     41 H19        -0.5348   -3.9781    2.9759 H         1 <0>         0.0000
     42 H20         8.1124   -2.5237    1.8705 H         1 <0>         0.0000
     43 H21         7.2788   -1.4660    0.7417 H         1 <0>         0.0000
     44 H22         5.4713   -4.8257    0.7425 H         1 <0>         0.0000
     45 H23         6.9178   -4.0682    0.0644 H         1 <0>         0.0000
     46 H24         5.7229   -3.1911    2.7220 H         1 <0>         0.0000
     47 H25         2.3043   -1.8161    0.4837 H         1 <0>         0.0000
     48 H26         6.1964   -0.2560    2.6429 H         1 <0>         0.0000
     49 H27         0.1595   -1.9470    0.9352 H         1 <0>         0.0000
     50 H28         3.8157   -4.1378    1.3829 H         1 <0>         0.0000
@<TRIPOS>BOND
     1    1   18 am
     2    1   20 2
     3    2   12 1
     4    2   17 am
     5    2   21 2
     6    3   13 1
     7    3   16 am
     8    3   22 2
     9    4   14 1
    10    5   14 1
    11    6   15 1
    12    7   15 1
    13    8   15 1
    14    9   16 1
    15   10   12 1
    16   10   14 1
    17   11   12 1
    18   11   18 1
    19   13   15 1
    20   13   17 1
    21   18   19 1
    22    1   23 1
    23    4   24 1
    24    4   25 1
    25    4   26 1
    26    5   27 1
    27    5   28 1
    28    5   29 1
    29    6   30 1
    30    6   31 1
    31    6   32 1
    32    7   33 1
    33    7   34 1
    34    7   35 1
    35    8   36 1
    36    8   37 1
    37    8   38 1
    38    9   39 1
    39    9   40 1
    40    9   41 1
    41   10   42 1
    42   10   43 1
    43   11   44 1
    44   11   45 1
    45   12   46 1
    46   13   47 1
    47   14   48 1
    48   16   49 1
    49   17   50 1
@<TRIPOS>MOLECULE
LIGAND
   50    49     0     0     0
SMALL
NO_CHARGES

@<TRIPOS>ATOM
      1 C1          7.4208   -1.8944   -1.4646 C.2       1 <0>         0.0000
      2 C2          4.7609   -2.3304    1.0158 C.2       1 <0>         0.0000
      3 C3          1.6238   -2.1763    1.4428 C.2       1 <0>         0.0000
      4 C4          4.6188   -4.7049    3.8537 C.3       1 <0>         0.0000
      5 C5          4.9148   -2.8132    5.4620 C.3       1 <0>         0.0000
      6 C6          2.6382   -4.8237   -1.2732 C.3       1 <0>         0.0000
      7 C7          1.4139   -5.1834    0.8654 C.3       1 <0>         0.0000
      8 C8          0.3871   -3.7862   -0.9377 C.3       1 <0>         0.0000
      9 C9          1.3383    0.0348    2.5199 C.3       1 <0>         0.0000
     10 C10         6.0212   -2.6662    3.2096 C.3       1 <0>         0.0000
     11 C11         7.2695   -2.4142    1.0053 C.3       1 <0>         0.0000
     12 C12         5.9953   -2.9363    1.6910 C.3       1 <0>         0.0000
     13 C13         2.4245   -2.8999    0.3599 C.3       1 <0>         0.0000
     14 C14         4.7908   -3.1904    3.9826 C.3       1 <0>         0.0000
     15 C15         1.7114   -4.1488   -0.2382 C.3       1 <0>         0.0000
     16 N1          1.9549   -0.8333    1.5455 N.am      1 <0>         0.0000
     17 N2          3.6959   -3.2182    0.9688 N.am      1 <0>         0.0000
     18 N3          7.3436   -2.7497   -0.3914 N.am      1 <0>         0.0000
     19 O1          7.3340   -4.1047   -0.6590 O.3       1 <0>         0.0000
     20 O2          7.4404   -0.6681   -1.4159 O.2       1 <0>         0.0000
     21 O3          4.7482   -1.1914    0.5542 O.2       1 <0>         0.0000
     22 O4          0.7950   -2.7447    2.1522 O.2       1 <0>         0.0000
     23 H1          7.4673   -2.4124   -2.4388 H         1 <0>         0.0000
     24 H2          5.5037   -5.2294    4.2303 H         1 <0>         0.0000
     25 H3          4.4709   -5.0006    2.8097 H         1 <0>         0.0000
     26 H4          3.7637   -5.0613    4.4353 H         1 <0>         0.0000
     27 H5          5.8053   -3.2631    5.9141 H         1 <0>         0.0000
     28 H6          4.9845   -1.7270    5.5823 H         1 <0>         0.0000
     29 H7          4.0398   -3.1538    6.0255 H         1 <0>         0.0000
     30 H8          2.8872   -4.1345   -2.0879 H         1 <0>         0.0000
     31 H9          2.1738   -5.7124   -1.7140 H         1 <0>         0.0000
     32 H10         3.5794   -5.1449   -0.8119 H         1 <0>         0.0000
     33 H11         0.7565   -4.7621    1.6349 H         1 <0>         0.0000
     34 H12         2.3282   -5.5113    1.3711 H         1 <0>         0.0000
     35 H13         0.9158   -6.0685    0.4541 H         1 <0>         0.0000
     36 H14        -0.3050   -3.3025   -0.2384 H         1 <0>         0.0000
     37 H15        -0.1179   -4.6740   -1.3329 H         1 <0>         0.0000
     38 H16         0.5457   -3.0900   -1.7676 H         1 <0>         0.0000
     39 H17         0.4402    0.4941    2.0989 H         1 <0>         0.0000
     40 H18         2.0331    0.8259    2.8147 H         1 <0>         0.0000
     41 H19         1.0580   -0.5350    3.4100 H         1 <0>         0.0000
     42 H20         6.9244   -3.1220    3.6370 H         1 <0>         0.0000
     43 H21         6.1083   -1.5861    3.3865 H         1 <0>         0.0000
     44 H22         7.3249   -1.3230    1.0798 H         1 <0>         0.0000
     45 H23         8.1679   -2.8255    1.4773 H         1 <0>         0.0000
     46 H24         5.9704   -4.0198    1.5260 H         1 <0>         0.0000
     47 H25         2.6549   -2.1876   -0.4426 H         1 <0>         0.0000
     48 H26         3.8848   -2.7101    3.5951 H         1 <0>         0.0000
     49 H27         2.6527   -0.4488    0.9157 H         1 <0>         0.0000
     50 H28         3.8157   -4.1378    1.3829 H         1 <0>         0.0000
@<TRIPOS>BOND
     1    1   18 am
     2    1   20 2
     3    2   12 1
     4    2   17 am
     5    2   21 2
     6    3   13 1
     7    3   16 am
     8    3   22 2
     9    4   14 1
    10    5   14 1
    11    6   15 1
    12    7   15 1
    13    8   15 1
    14    9   16 1
    15   10   12 1
    16   10   14 1
    17   11   12 1
    18   11   18 1
    19   13   15 1
    20   13   17 1
    21   18   19 1
    22    1   23 1
    23    4   24 1
    24    4   25 1
    25    4   26 1
    26    5   27 1
    27    5   28 1
    28    5   29 1
    29    6   30 1
    30    6   31 1
    31    6   32 1
    32    7   33 1
    33    7   34 1
    34    7   35 1
    35    8   36 1
    36    8   37 1
    37    8   38 1
    38    9   39 1
    39    9   40 1
    40    9   41 1
    41   10   42 1
    42   10   43 1
    43   11   44 1
    44   11   45 1
    45   12   46 1
    46   13   47 1
    47   14   48 1
    48   16   49 1
    49   17   50 1
@<TRIPOS>MOLECULE
LIGAND
   50    49     0     0     0
SMALL
NO_CHARGES

@<TRIPOS>ATOM
      1 C1          7.3535   -4.0001   -0.9624 C.2       1 <0>         0.0000
      2 C2          4.7609   -2.3304    1.0158 C.2       1 <0>         0.0000
      3 C3          1.4114   -2.9063    1.5049 C.2       1 <0>         0.0000
      4 C4          5.4286   -5.0551    3.9022 C.3       1 <0>         0.0000
      5 C5          5.1681   -3.1669    5.5205 C.3       1 <0>         0.0000
      6 C6          2.6765   -3.3019   -2.1277 C.3       1 <0>         0.0000
      7 C7          2.6544   -5.2554   -0.5834 C.3       1 <0>         0.0000
      8 C8          0.5425   -3.9869   -1.0173 C.3       1 <0>         0.0000
      9 C9         -0.0359   -1.4126    2.8483 C.3       1 <0>         0.0000
     10 C10         6.0212   -2.6662    3.2096 C.3       1 <0>         0.0000
     11 C11         7.2695   -2.4142    1.0053 C.3       1 <0>         0.0000
     12 C12         5.9953   -2.9363    1.6910 C.3       1 <0>         0.0000
     13 C13         2.4245   -2.8999    0.3599 C.3       1 <0>         0.0000
     14 C14         5.0884   -3.5706    4.0452 C.3       1 <0>         0.0000
     15 C15         2.0646   -3.8508   -0.8201 C.3       1 <0>         0.0000
     16 N1          0.9155   -1.6421    1.7876 N.am      1 <0>         0.0000
     17 N2          3.6959   -3.2182    0.9688 N.am      1 <0>         0.0000
     18 N3          7.3436   -2.7497   -0.3914 N.am      1 <0>         0.0000
     19 O1          7.4124   -1.6632   -1.2413 O.3       1 <0>         0.0000
     20 O2          7.4178   -4.2499   -2.1624 O.2       1 <0>         0.0000
     21 O3          4.7482   -1.1914    0.5542 O.2       1 <0>         0.0000
     22 O4          1.0981   -3.9285    2.1133 O.2       1 <0>         0.0000
     23 H1          7.2963   -4.8213   -0.2263 H         1 <0>         0.0000
     24 H2          6.4596   -5.2491    4.2175 H         1 <0>         0.0000
     25 H3          5.3256   -5.3883    2.8641 H         1 <0>         0.0000
     26 H4          4.7804   -5.6761    4.5273 H         1 <0>         0.0000
     27 H5          6.1838   -3.2884    5.9121 H         1 <0>         0.0000
     28 H6          4.8754   -2.1200    5.6540 H         1 <0>         0.0000
     29 H7          4.4947   -3.7797    6.1290 H         1 <0>         0.0000
     30 H8          2.2940   -2.2998   -2.3517 H         1 <0>         0.0000
     31 H9          2.4502   -3.9477   -2.9831 H         1 <0>         0.0000
     32 H10         3.7681   -3.2311   -2.0551 H         1 <0>         0.0000
     33 H11         2.2564   -5.7011    0.3358 H         1 <0>         0.0000
     34 H12         3.7440   -5.2254   -0.4780 H         1 <0>         0.0000
     35 H13         2.4105   -5.9315   -1.4105 H         1 <0>         0.0000
     36 H14         0.0636   -4.3749   -0.1106 H         1 <0>         0.0000
     37 H15         0.3004   -4.6763   -1.8330 H         1 <0>         0.0000
     38 H16         0.0759   -3.0219   -1.2405 H         1 <0>         0.0000
     39 H17        -1.0554   -1.5084    2.4658 H         1 <0>         0.0000
     40 H18         0.0924   -0.4080    3.2604 H         1 <0>         0.0000
     41 H19         0.1090   -2.1415    3.6503 H         1 <0>         0.0000
     42 H20         7.0493   -2.7891    3.5757 H         1 <0>         0.0000
     43 H21         5.7503   -1.6191    3.3985 H         1 <0>         0.0000
     44 H22         7.3249   -1.3230    1.0798 H         1 <0>         0.0000
     45 H23         8.1679   -2.8255    1.4773 H         1 <0>         0.0000
     46 H24         5.9704   -4.0198    1.5260 H         1 <0>         0.0000
     47 H25         2.5279   -1.8729   -0.0129 H         1 <0>         0.0000
     48 H26         4.0519   -3.4254    3.7195 H         1 <0>         0.0000
     49 H27         1.2316   -0.8537    1.2310 H         1 <0>         0.0000
     50 H28         3.8157   -4.1378    1.3829 H         1 <0>         0.0000
@<TRIPOS>BOND
     1    1   18 am
     2    1   20 2
     3    2   12 1
     4    2   17 am
     5    2   21 2
     6    3   13 1
     7    3   16 am
     8    3   22 2
     9    4   14 1
    10    5   14 1
    11    6   15 1
    12    7   15 1
    13    8   15 1
    14    9   16 1
    15   10   12 1
    16   10   14 1
    17   11   12 1
    18   11   18 1
    19   13   15 1
    20   13   17 1
    21   18   19 1
    22    1   23 1
    23    4   24 1
    24    4   25 1
    25    4   26 1
    26    5   27 1
    27    5   28 1
    28    5   29 1
    29    6   30 1
    30    6   31 1
    31    6   32 1
    32    7   33 1
    33    7   34 1
    34    7   35 1
    35    8   36 1
    36    8   37 1
    37    8   38 1
    38    9   39 1
    39    9   40 1
    40    9   41 1
    41   10   42 1
    42   10   43 1
    43   11   44 1
    44   11   45 1
    45   12   46 1
    46   13   47 1
    47   14   48 1
    48   16   49 1
    49   17   50 1
@<TRIPOS>MOLECULE
LIGAND
   50    49     0     0     0
SMALL
NO_CHARGES

@<TRIPOS>ATOM
      1 C1          8.5105   -4.8536    1.8116 C.2       1 <0>         0.0000
      2 C2          4.7609   -2.3304    1.0158 C.2       1 <0>         0.0000
      3 C3          1.3743   -3.6105    1.2141 C.2       1 <0>         0.0000
      4 C4          4.8998   -3.3220    4.5808 C.3       1 <0>         0.0000
      5 C5          5.9126   -1.1117    5.1647 C.3       1 <0>         0.0000
      6 C6          2.9144   -2.0789   -1.9851 C.3       1 <0>         0.0000
      7 C7          3.2618   -4.4861   -1.4495 C.3       1 <0>         0.0000
      8 C8          0.9399   -3.5730   -1.6309 C.3       1 <0>         0.0000
      9 C9         -0.4638   -3.1822    2.8167 C.3       1 <0>         0.0000
     10 C10         6.4405   -2.1272    2.9267 C.3       1 <0>         0.0000
     11 C11         7.1342   -3.0688    0.6654 C.3       1 <0>         0.0000
     12 C12         5.9953   -2.9363    1.6910 C.3       1 <0>         0.0000
     13 C13         2.4245   -2.8999    0.3599 C.3       1 <0>         0.0000
     14 C14         5.3645   -1.9750    4.0244 C.3       1 <0>         0.0000
     15 C15         2.3718   -3.2623   -1.1540 C.3       1 <0>         0.0000
     16 N1          0.5772   -2.7269    1.9268 N.am      1 <0>         0.0000
     17 N2          3.6959   -3.2182    0.9688 N.am      1 <0>         0.0000
     18 N3          8.3392   -3.6246    1.2202 N.am      1 <0>         0.0000
     19 O1          9.4449   -2.8013    1.1353 O.3       1 <0>         0.0000
     20 O2          9.5569   -5.2966    2.2756 O.2       1 <0>         0.0000
     21 O3          4.7482   -1.1914    0.5542 O.2       1 <0>         0.0000
     22 O4          1.2756   -4.8354    1.2685 O.2       1 <0>         0.0000
     23 H1          7.5873   -5.4588    1.8461 H         1 <0>         0.0000
     24 H2          5.7423   -3.8772    5.0075 H         1 <0>         0.0000
     25 H3          4.4501   -3.9417    3.7978 H         1 <0>         0.0000
     26 H4          4.1642   -3.1925    5.3800 H         1 <0>         0.0000
     27 H5          6.7922   -1.5734    5.6261 H         1 <0>         0.0000
     28 H6          6.2016   -0.1209    4.7985 H         1 <0>         0.0000
     29 H7          5.1564   -0.9697    5.9440 H         1 <0>         0.0000
     30 H8          2.3199   -1.1739   -1.8172 H         1 <0>         0.0000
     31 H9          2.8994   -2.2973   -3.0585 H         1 <0>         0.0000
     32 H10         3.9518   -1.8484   -1.7158 H         1 <0>         0.0000
     33 H11         2.9258   -5.3642   -0.8858 H         1 <0>         0.0000
     34 H12         4.3049   -4.3063   -1.1689 H         1 <0>         0.0000
     35 H13         3.2353   -4.7468   -2.5135 H         1 <0>         0.0000
     36 H14         0.5126   -4.4101   -1.0664 H         1 <0>         0.0000
     37 H15         0.9176   -3.8503   -2.6901 H         1 <0>         0.0000
     38 H16         0.2727   -2.7163   -1.4916 H         1 <0>         0.0000
     39 H17        -1.4067   -3.2811    2.2725 H         1 <0>         0.0000
     40 H18        -0.6020   -2.4684    3.6333 H         1 <0>         0.0000
     41 H19        -0.1993   -4.1542    3.2419 H         1 <0>         0.0000
     42 H20         7.3251   -2.6069    3.3666 H         1 <0>         0.0000
     43 H21         6.7588   -1.1249    2.6110 H         1 <0>         0.0000
     44 H22         6.8299   -3.7170   -0.1632 H         1 <0>         0.0000
     45 H23         7.4005   -2.0938    0.2440 H         1 <0>         0.0000
     46 H24         5.7385   -3.9535    2.0094 H         1 <0>         0.0000
     47 H25         2.3043   -1.8161    0.4837 H         1 <0>         0.0000
     48 H26         4.4913   -1.4577    3.6101 H         1 <0>         0.0000
     49 H27         0.7309   -1.7288    1.8190 H         1 <0>         0.0000
     50 H28         3.8157   -4.1378    1.3829 H         1 <0>         0.0000
@<TRIPOS>BOND
     1    1   18 am
     2    1   20 2
     3    2   12 1
     4    2   17 am
     5    2   21 2
     6    3   13 1
     7    3   16 am
     8    3   22 2
     9    4   14 1
    10    5   14 1
    11    6   15 1
    12    7   15 1
    13    8   15 1
    14    9   16 1
    15   10   12 1
    16   10   14 1
    17   11   12 1
    18   11   18 1
    19   13   15 1
    20   13   17 1
    21   18   19 1
    22    1   23 1
    23    4   24 1
    24    4   25 1
    25    4   26 1
    26    5   27 1
    27    5   28 1
    28    5   29 1
    29    6   30 1
    30    6   31 1
    31    6   32 1
    32    7   33 1
    33    7   34 1
    34    7   35 1
    35    8   36 1
    36    8   37 1
    37    8   38 1
    38    9   39 1
    39    9   40 1
    40    9   41 1
    41   10   42 1
    42   10   43 1
    43   11   44 1
    44   11   45 1
    45   12   46 1
    46   13   47 1
    47   14   48 1
    48   16   49 1
    49   17   50 1
@<TRIPOS>MOLECULE
LIGAND
   50    49     0     0     0
SMALL
NO_CHARGES

@<TRIPOS>ATOM
      1 C1          9.0094   -4.5043    1.6394 C.2       1 <0>         0.0000
      2 C2          4.7609   -2.3304    1.0158 C.2       1 <0>         0.0000
      3 C3          1.3743   -3.6105    1.2141 C.2       1 <0>         0.0000
      4 C4          5.5916   -1.8934    4.5978 C.3       1 <0>         0.0000
      5 C5          7.0929    0.0222    4.0244 C.3       1 <0>         0.0000
      6 C6          3.5112   -2.5312   -1.8976 C.3       1 <0>         0.0000
      7 C7          2.5798   -4.7765   -1.3563 C.3       1 <0>         0.0000
      8 C8          1.0336   -2.8618   -1.8044 C.3       1 <0>         0.0000
      9 C9          0.9474   -5.7172    2.4429 C.3       1 <0>         0.0000
     10 C10         6.8665   -1.8668    2.3816 C.3       1 <0>         0.0000
     11 C11         6.8055   -3.7427    0.6616 C.3       1 <0>         0.0000
     12 C12         5.9953   -2.9363    1.6910 C.3       1 <0>         0.0000
     13 C13         2.4245   -2.8999    0.3599 C.3       1 <0>         0.0000
     14 C14         6.1374   -1.0321    3.4575 C.3       1 <0>         0.0000
     15 C15         2.3718   -3.2623   -1.1540 C.3       1 <0>         0.0000
     16 N1          1.7913   -4.8618    1.6434 N.am      1 <0>         0.0000
     17 N2          3.6959   -3.2182    0.9688 N.am      1 <0>         0.0000
     18 N3          7.7018   -4.6947    1.2608 N.am      1 <0>         0.0000
     19 O1          7.1560   -5.9460    1.4704 O.3       1 <0>         0.0000
     20 O2          9.6534   -3.4652    1.5292 O.2       1 <0>         0.0000
     21 O3          4.7482   -1.1914    0.5542 O.2       1 <0>         0.0000
     22 O4          0.2747   -3.1197    1.4652 O.2       1 <0>         0.0000
     23 H1          9.4767   -5.4035    2.0784 H         1 <0>         0.0000
     24 H2          6.4006   -2.4456    5.0885 H         1 <0>         0.0000
     25 H3          4.8609   -2.6219    4.2310 H         1 <0>         0.0000
     26 H4          5.1097   -1.2817    5.3659 H         1 <0>         0.0000
     27 H5          7.9623   -0.4436    4.5008 H         1 <0>         0.0000
     28 H6          7.4545    0.6861    3.2321 H         1 <0>         0.0000
     29 H7          6.5886    0.6429    4.7727 H         1 <0>         0.0000
     30 H8          3.4182   -1.4447   -1.7906 H         1 <0>         0.0000
     31 H9          3.5120   -2.7653   -2.9677 H         1 <0>         0.0000
     32 H10         4.4918   -2.8203   -1.5020 H         1 <0>         0.0000
     33 H11         1.7979   -5.3538   -0.8491 H         1 <0>         0.0000
     34 H12         3.5395   -5.1121   -0.9494 H         1 <0>         0.0000
     35 H13         2.5489   -5.0416   -2.4191 H         1 <0>         0.0000
     36 H14         0.1926   -3.3589   -1.3070 H         1 <0>         0.0000
     37 H15         0.9978   -3.1431   -2.8622 H         1 <0>         0.0000
     38 H16         0.8573   -1.7835   -1.7352 H         1 <0>         0.0000
     39 H17         1.1106   -5.5192    3.5054 H         1 <0>         0.0000
     40 H18         1.1750   -6.7676    2.2417 H         1 <0>         0.0000
     41 H19        -0.1050   -5.5357    2.2087 H         1 <0>         0.0000
     42 H20         7.7322   -2.3581    2.8457 H         1 <0>         0.0000
     43 H21         7.2705   -1.1813    1.6250 H         1 <0>         0.0000
     44 H22         6.1354   -4.3010   -0.0008 H         1 <0>         0.0000
     45 H23         7.4165   -3.0830    0.0367 H         1 <0>         0.0000
     46 H24         5.6479   -3.6501    2.4472 H         1 <0>         0.0000
     47 H25         2.3043   -1.8161    0.4837 H         1 <0>         0.0000
     48 H26         5.2955   -0.5008    2.9986 H         1 <0>         0.0000
     49 H27         2.7190   -5.1861    1.3873 H         1 <0>         0.0000
     50 H28         3.8157   -4.1378    1.3829 H         1 <0>         0.0000
@<TRIPOS>BOND
     1    1   18 am
     2    1   20 2
     3    2   12 1
     4    2   17 am
     5    2   21 2
     6    3   13 1
     7    3   16 am
     8    3   22 2
     9    4   14 1
    10    5   14 1
    11    6   15 1
    12    7   15 1
    13    8   15 1
    14    9   16 1
    15   10   12 1
    16   10   14 1
    17   11   12 1
    18   11   18 1
    19   13   15 1
    20   13   17 1
    21   18   19 1
    22    1   23 1
    23    4   24 1
    24    4   25 1
    25    4   26 1
    26    5   27 1
    27    5   28 1
    28    5   29 1
    29    6   30 1
    30    6   31 1
    31    6   32 1
    32    7   33 1
    33    7   34 1
    34    7   35 1
    35    8   36 1
    36    8   37 1
    37    8   38 1
    38    9   39 1
    39    9   40 1
    40    9   41 1
    41   10   42 1
    42   10   43 1
    43   11   44 1
    44   11   45 1
    45   12   46 1
    46   13   47 1
    47   14   48 1
    48   16   49 1
    49   17   50 1
@<TRIPOS>MOLECULE
LIGAND
   50    49     0     0     0
SMALL
NO_CHARGES

@<TRIPOS>ATOM
      1 C1          8.4401   -2.2571   -0.5690 C.2       1 <0>         0.0000
      2 C2          4.7609   -2.3304    1.0158 C.2       1 <0>         0.0000
      3 C3          1.6238   -2.1763    1.4428 C.2       1 <0>         0.0000
      4 C4          5.5916   -1.8934    4.5978 C.3       1 <0>         0.0000
      5 C5          7.0929    0.0222    4.0244 C.3       1 <0>         0.0000
      6 C6          2.6382   -4.8237   -1.2732 C.3       1 <0>         0.0000
      7 C7          1.4139   -5.1834    0.8654 C.3       1 <0>         0.0000
      8 C8          0.3871   -3.7862   -0.9377 C.3       1 <0>         0.0000
      9 C9          1.3383    0.0348    2.5199 C.3       1 <0>         0.0000
     10 C10         6.8665   -1.8668    2.3816 C.3       1 <0>         0.0000
     11 C11         6.8055   -3.7427    0.6616 C.3       1 <0>         0.0000
     12 C12         5.9953   -2.9363    1.6910 C.3       1 <0>         0.0000
     13 C13         2.4245   -2.8999    0.3599 C.3       1 <0>         0.0000
     14 C14         6.1374   -1.0321    3.4575 C.3       1 <0>         0.0000
     15 C15         1.7114   -4.1488   -0.2382 C.3       1 <0>         0.0000
     16 N1          1.9549   -0.8333    1.5455 N.am      1 <0>         0.0000
     17 N2          3.6959   -3.2182    0.9688 N.am      1 <0>         0.0000
     18 N3          7.2606   -2.9528   -0.4510 N.am      1 <0>         0.0000
     19 O1          6.3854   -2.9043   -1.5183 O.3       1 <0>         0.0000
     20 O2          8.7968   -1.5913   -1.5365 O.2       1 <0>         0.0000
     21 O3          4.7482   -1.1914    0.5542 O.2       1 <0>         0.0000
     22 O4          0.7950   -2.7447    2.1522 O.2       1 <0>         0.0000
     23 H1          9.0911   -2.3390    0.3194 H         1 <0>         0.0000
     24 H2          6.4006   -2.4456    5.0885 H         1 <0>         0.0000
     25 H3          4.8609   -2.6219    4.2310 H         1 <0>         0.0000
     26 H4          5.1097   -1.2817    5.3659 H         1 <0>         0.0000
     27 H5          7.9623   -0.4436    4.5008 H         1 <0>         0.0000
     28 H6          7.4545    0.6861    3.2321 H         1 <0>         0.0000
     29 H7          6.5886    0.6429    4.7727 H         1 <0>         0.0000
     30 H8          2.8872   -4.1345   -2.0879 H         1 <0>         0.0000
     31 H9          2.1738   -5.7124   -1.7140 H         1 <0>         0.0000
     32 H10         3.5794   -5.1449   -0.8119 H         1 <0>         0.0000
     33 H11         0.7565   -4.7621    1.6349 H         1 <0>         0.0000
     34 H12         2.3282   -5.5113    1.3711 H         1 <0>         0.0000
     35 H13         0.9158   -6.0685    0.4541 H         1 <0>         0.0000
     36 H14        -0.3050   -3.3025   -0.2384 H         1 <0>         0.0000
     37 H15        -0.1179   -4.6740   -1.3329 H         1 <0>         0.0000
     38 H16         0.5457   -3.0900   -1.7676 H         1 <0>         0.0000
     39 H17         0.4402    0.4941    2.0989 H         1 <0>         0.0000
     40 H18         2.0331    0.8259    2.8147 H         1 <0>         0.0000
     41 H19         1.0580   -0.5350    3.4100 H         1 <0>         0.0000
     42 H20         7.7322   -2.3581    2.8457 H         1 <0>         0.0000
     43 H21         7.2705   -1.1813    1.6250 H         1 <0>         0.0000
     44 H22         7.6920   -4.1821    1.1312 H         1 <0>         0.0000
     45 H23         6.2097   -4.5617    0.2452 H         1 <0>         0.0000
     46 H24         5.6479   -3.6501    2.4472 H         1 <0>         0.0000
     47 H25         2.6549   -2.1876   -0.4426 H         1 <0>         0.0000
     48 H26         5.2955   -0.5008    2.9986 H         1 <0>         0.0000
     49 H27         2.6527   -0.4488    0.9157 H         1 <0>         0.0000
     50 H28         3.8157   -4.1378    1.3829 H         1 <0>         0.0000
@<TRIPOS>BOND
     1    1   18 am
     2    1   20 2
     3    2   12 1
     4    2   17 am
     5    2   21 2
     6    3   13 1
     7    3   16 am
     8    3   22 2
     9    4   14 1
    10    5   14 1
    11    6   15 1
    12    7   15 1
    13    8   15 1
    14    9   16 1
    15   10   12 1
    16   10   14 1
    17   11   12 1
    18   11   18 1
    19   13   15 1
    20   13   17 1
    21   18   19 1
    22    1   23 1
    23    4   24 1
    24    4   25 1
    25    4   26 1
    26    5   27 1
    27    5   28 1
    28    5   29 1
    29    6   30 1
    30    6   31 1
    31    6   32 1
    32    7   33 1
    33    7   34 1
    34    7   35 1
    35    8   36 1
    36    8   37 1
    37    8   38 1
    38    9   39 1
    39    9   40 1
    40    9   41 1
    41   10   42 1
    42   10   43 1
    43   11   44 1
    44   11   45 1
    45   12   46 1
    46   13   47 1
    47   14   48 1
    48   16   49 1
    49   17   50 1
@<TRIPOS>MOLECULE
LIGAND
   50    49     0     0     0
SMALL
NO_CHARGES

@<TRIPOS>ATOM
      1 C1          7.3535   -4.0001   -0.9624 C.2       1 <0>         0.0000
      2 C2          4.7609   -2.3304    1.0158 C.2       1 <0>         0.0000
      3 C3          1.4114   -2.9063    1.5049 C.2       1 <0>         0.0000
      4 C4          5.4286   -5.0551    3.9022 C.3       1 <0>         0.0000
      5 C5          5.1681   -3.1669    5.5205 C.3       1 <0>         0.0000
      6 C6          1.9716   -3.0346   -2.1281 C.3       1 <0>         0.0000
      7 C7          3.1629   -4.9155   -1.0124 C.3       1 <0>         0.0000
      8 C8          0.7197   -4.5702   -0.6013 C.3       1 <0>         0.0000
      9 C9         -0.5781   -1.7107    2.3670 C.3       1 <0>         0.0000
     10 C10         6.0212   -2.6662    3.2096 C.3       1 <0>         0.0000
     11 C11         7.2695   -2.4142    1.0053 C.3       1 <0>         0.0000
     12 C12         5.9953   -2.9363    1.6910 C.3       1 <0>         0.0000
     13 C13         2.4245   -2.8999    0.3599 C.3       1 <0>         0.0000
     14 C14         5.0884   -3.5706    4.0452 C.3       1 <0>         0.0000
     15 C15         2.0646   -3.8508   -0.8201 C.3       1 <0>         0.0000
     16 N1          0.4604   -1.9038    1.3835 N.am      1 <0>         0.0000
     17 N2          3.6959   -3.2182    0.9688 N.am      1 <0>         0.0000
     18 N3          7.3436   -2.7497   -0.3914 N.am      1 <0>         0.0000
     19 O1          7.4124   -1.6632   -1.2413 O.3       1 <0>         0.0000
     20 O2          7.2996   -5.0713   -0.3656 O.2       1 <0>         0.0000
     21 O3          4.7482   -1.1914    0.5542 O.2       1 <0>         0.0000
     22 O4          1.4623   -3.7076    2.4368 O.2       1 <0>         0.0000
     23 H1          7.4170   -3.9808   -2.0648 H         1 <0>         0.0000
     24 H2          6.4596   -5.2491    4.2175 H         1 <0>         0.0000
     25 H3          5.3256   -5.3883    2.8641 H         1 <0>         0.0000
     26 H4          4.7804   -5.6761    4.5273 H         1 <0>         0.0000
     27 H5          6.1838   -3.2884    5.9121 H         1 <0>         0.0000
     28 H6          4.8754   -2.1200    5.6540 H         1 <0>         0.0000
     29 H7          4.4947   -3.7797    6.1290 H         1 <0>         0.0000
     30 H8          1.2033   -2.2569   -2.0537 H         1 <0>         0.0000
     31 H9          1.7252   -3.6703   -2.9855 H         1 <0>         0.0000
     32 H10         2.9231   -2.5396   -2.3546 H         1 <0>         0.0000
     33 H11         3.2779   -5.5312   -0.1127 H         1 <0>         0.0000
     34 H12         4.1381   -4.4603   -1.2147 H         1 <0>         0.0000
     35 H13         2.9214   -5.5874   -1.8436 H         1 <0>         0.0000
     36 H14         0.7392   -5.1646    0.3197 H         1 <0>         0.0000
     37 H15         0.4883   -5.2543   -1.4246 H         1 <0>         0.0000
     38 H16        -0.1084   -3.8600   -0.5090 H         1 <0>         0.0000
     39 H17        -1.4589   -2.3023    2.1044 H         1 <0>         0.0000
     40 H18        -0.8634   -0.6562    2.4133 H         1 <0>         0.0000
     41 H19        -0.2264   -2.0222    3.3542 H         1 <0>         0.0000
     42 H20         7.0493   -2.7891    3.5757 H         1 <0>         0.0000
     43 H21         5.7503   -1.6191    3.3985 H         1 <0>         0.0000
     44 H22         7.3249   -1.3230    1.0798 H         1 <0>         0.0000
     45 H23         8.1679   -2.8255    1.4773 H         1 <0>         0.0000
     46 H24         5.9704   -4.0198    1.5260 H         1 <0>         0.0000
     47 H25         2.5279   -1.8729   -0.0129 H         1 <0>         0.0000
     48 H26         4.0519   -3.4254    3.7195 H         1 <0>         0.0000
     49 H27         0.4960   -1.2867    0.5777 H         1 <0>         0.0000
     50 H28         3.8157   -4.1378    1.3829 H         1 <0>         0.0000
@<TRIPOS>BOND
     1    1   18 am
     2    1   20 2
     3    2   12 1
     4    2   17 am
     5    2   21 2
     6    3   13 1
     7    3   16 am
     8    3   22 2
     9    4   14 1
    10    5   14 1
    11    6   15 1
    12    7   15 1
    13    8   15 1
    14    9   16 1
    15   10   12 1
    16   10   14 1
    17   11   12 1
    18   11   18 1
    19   13   15 1
    20   13   17 1
    21   18   19 1
    22    1   23 1
    23    4   24 1
    24    4   25 1
    25    4   26 1
    26    5   27 1
    27    5   28 1
    28    5   29 1
    29    6   30 1
    30    6   31 1
    31    6   32 1
    32    7   33 1
    33    7   34 1
    34    7   35 1
    35    8   36 1
    36    8   37 1
    37    8   38 1
    38    9   39 1
    39    9   40 1
    40    9   41 1
    41   10   42 1
    42   10   43 1
    43   11   44 1
    44   11   45 1
    45   12   46 1
    46   13   47 1
    47   14   48 1
    48   16   49 1
    49   17   50 1
@<TRIPOS>MOLECULE
LIGAND
   50    49     0     0     0
SMALL
NO_CHARGES

@<TRIPOS>ATOM
      1 C1          6.4299   -3.6086   -1.8353 C.2       1 <0>         0.0000
      2 C2          4.7609   -2.3304    1.0158 C.2       1 <0>         0.0000
      3 C3          1.6238   -2.1763    1.4428 C.2       1 <0>         0.0000
      4 C4          6.2068   -2.5045    4.7682 C.3       1 <0>         0.0000
      5 C5          7.2536   -0.2835    4.2952 C.3       1 <0>         0.0000
      6 C6          2.6382   -4.8237   -1.2732 C.3       1 <0>         0.0000
      7 C7          1.4139   -5.1834    0.8654 C.3       1 <0>         0.0000
      8 C8          0.3871   -3.7862   -0.9377 C.3       1 <0>         0.0000
      9 C9          0.7109    0.0436    2.0502 C.3       1 <0>         0.0000
     10 C10         6.8665   -1.8668    2.3816 C.3       1 <0>         0.0000
     11 C11         6.8055   -3.7427    0.6616 C.3       1 <0>         0.0000
     12 C12         5.9953   -2.9363    1.6910 C.3       1 <0>         0.0000
     13 C13         2.4245   -2.8999    0.3599 C.3       1 <0>         0.0000
     14 C14         6.3308   -1.3748    3.7443 C.3       1 <0>         0.0000
     15 C15         1.7114   -4.1488   -0.2382 C.3       1 <0>         0.0000
     16 N1          1.4216   -0.8351    1.1525 N.am      1 <0>         0.0000
     17 N2          3.6959   -3.2182    0.9688 N.am      1 <0>         0.0000
     18 N3          6.8710   -3.1147   -0.6307 N.am      1 <0>         0.0000
     19 O1          7.4534   -1.8623   -0.6330 O.3       1 <0>         0.0000
     20 O2          5.8915   -4.6958   -2.0210 O.2       1 <0>         0.0000
     21 O3          4.7482   -1.1914    0.5542 O.2       1 <0>         0.0000
     22 O4          1.2284   -2.7340    2.4655 O.2       1 <0>         0.0000
     23 H1          6.6009   -2.9214   -2.6827 H         1 <0>         0.0000
     24 H2          7.1779   -2.9820    4.9387 H         1 <0>         0.0000
     25 H3          5.5078   -3.2753    4.4268 H         1 <0>         0.0000
     26 H4          5.8592   -2.1311    5.7358 H         1 <0>         0.0000
     27 H5          8.2679   -0.6642    4.4570 H         1 <0>         0.0000
     28 H6          7.3145    0.5617    3.6015 H         1 <0>         0.0000
     29 H7          6.8785    0.0981    5.2508 H         1 <0>         0.0000
     30 H8          2.8872   -4.1345   -2.0879 H         1 <0>         0.0000
     31 H9          2.1738   -5.7124   -1.7140 H         1 <0>         0.0000
     32 H10         3.5794   -5.1449   -0.8119 H         1 <0>         0.0000
     33 H11         0.7565   -4.7621    1.6349 H         1 <0>         0.0000
     34 H12         2.3282   -5.5113    1.3711 H         1 <0>         0.0000
     35 H13         0.9158   -6.0685    0.4541 H         1 <0>         0.0000
     36 H14        -0.3050   -3.3025   -0.2384 H         1 <0>         0.0000
     37 H15        -0.1179   -4.6740   -1.3329 H         1 <0>         0.0000
     38 H16         0.5457   -3.0900   -1.7676 H         1 <0>         0.0000
     39 H17        -0.3565    0.0379    1.8148 H         1 <0>         0.0000
     40 H18         1.0868    1.0659    1.9547 H         1 <0>         0.0000
     41 H19         0.8449   -0.2838    3.0846 H         1 <0>         0.0000
     42 H20         7.8774   -2.2707    2.5271 H         1 <0>         0.0000
     43 H21         6.9742   -0.9994    1.7170 H         1 <0>         0.0000
     44 H22         7.8354   -3.8802    1.0076 H         1 <0>         0.0000
     45 H23         6.3710   -4.7361    0.5088 H         1 <0>         0.0000
     46 H24         5.6479   -3.6501    2.4472 H         1 <0>         0.0000
     47 H25         2.6549   -2.1876   -0.4426 H         1 <0>         0.0000
     48 H26         5.3389   -0.9289    3.6068 H         1 <0>         0.0000
     49 H27         1.7849   -0.4599    0.2815 H         1 <0>         0.0000
     50 H28         3.8157   -4.1378    1.3829 H         1 <0>         0.0000
@<TRIPOS>BOND
     1    1   18 am
     2    1   20 2
     3    2   12 1
     4    2   17 am
     5    2   21 2
     6    3   13 1
     7    3   16 am
     8    3   22 2
     9    4   14 1
    10    5   14 1
    11    6   15 1
    12    7   15 1
    13    8   15 1
    14    9   16 1
    15   10   12 1
    16   10   14 1
    17   11   12 1
    18   11   18 1
    19   13   15 1
    20   13   17 1
    21   18   19 1
    22    1   23 1
    23    4   24 1
    24    4   25 1
    25    4   26 1
    26    5   27 1
    27    5   28 1
    28    5   29 1
    29    6   30 1
    30    6   31 1
    31    6   32 1
    32    7   33 1
    33    7   34 1
    34    7   35 1
    35    8   36 1
    36    8   37 1
    37    8   38 1
    38    9   39 1
    39    9   40 1
    40    9   41 1
    41   10   42 1
    42   10   43 1
    43   11   44 1
    44   11   45 1
    45   12   46 1
    46   13   47 1
    47   14   48 1
    48   16   49 1
    49   17   50 1
@<TRIPOS>MOLECULE
LIGAND
   50    49     0     0     0
SMALL
NO_CHARGES

@<TRIPOS>ATOM
      1 C1          8.8722   -4.3065    0.5112 C.2       1 <0>         0.0000
      2 C2          4.7609   -2.3304    1.0158 C.2       1 <0>         0.0000
      3 C3          1.6238   -2.1763    1.4428 C.2       1 <0>         0.0000
      4 C4          4.6188   -4.7049    3.8537 C.3       1 <0>         0.0000
      5 C5          4.9148   -2.8132    5.4620 C.3       1 <0>         0.0000
      6 C6          2.6382   -4.8237   -1.2732 C.3       1 <0>         0.0000
      7 C7          1.4139   -5.1834    0.8654 C.3       1 <0>         0.0000
      8 C8          0.3871   -3.7862   -0.9377 C.3       1 <0>         0.0000
      9 C9          0.7109    0.0436    2.0502 C.3       1 <0>         0.0000
     10 C10         6.0212   -2.6662    3.2096 C.3       1 <0>         0.0000
     11 C11         7.2695   -2.4142    1.0053 C.3       1 <0>         0.0000
     12 C12         5.9953   -2.9363    1.6910 C.3       1 <0>         0.0000
     13 C13         2.4245   -2.8999    0.3599 C.3       1 <0>         0.0000
     14 C14         4.7908   -3.1904    3.9826 C.3       1 <0>         0.0000
     15 C15         1.7114   -4.1488   -0.2382 C.3       1 <0>         0.0000
     16 N1          1.4216   -0.8351    1.1525 N.am      1 <0>         0.0000
     17 N2          3.6959   -3.2182    0.9688 N.am      1 <0>         0.0000
     18 N3          8.4249   -3.2358    1.2479 N.am      1 <0>         0.0000
     19 O1          9.1570   -2.8836    2.3650 O.3       1 <0>         0.0000
     20 O2          9.8658   -4.9870    0.7486 O.2       1 <0>         0.0000
     21 O3          4.7482   -1.1914    0.5542 O.2       1 <0>         0.0000
     22 O4          1.2284   -2.7340    2.4655 O.2       1 <0>         0.0000
     23 H1          8.2407   -4.5326   -0.3662 H         1 <0>         0.0000
     24 H2          5.5037   -5.2294    4.2303 H         1 <0>         0.0000
     25 H3          4.4709   -5.0006    2.8097 H         1 <0>         0.0000
     26 H4          3.7637   -5.0613    4.4353 H         1 <0>         0.0000
     27 H5          5.8053   -3.2631    5.9141 H         1 <0>         0.0000
     28 H6          4.9845   -1.7270    5.5823 H         1 <0>         0.0000
     29 H7          4.0398   -3.1538    6.0255 H         1 <0>         0.0000
     30 H8          2.8872   -4.1345   -2.0879 H         1 <0>         0.0000
     31 H9          2.1738   -5.7124   -1.7140 H         1 <0>         0.0000
     32 H10         3.5794   -5.1449   -0.8119 H         1 <0>         0.0000
     33 H11         0.7565   -4.7621    1.6349 H         1 <0>         0.0000
     34 H12         2.3282   -5.5113    1.3711 H         1 <0>         0.0000
     35 H13         0.9158   -6.0685    0.4541 H         1 <0>         0.0000
     36 H14        -0.3050   -3.3025   -0.2384 H         1 <0>         0.0000
     37 H15        -0.1179   -4.6740   -1.3329 H         1 <0>         0.0000
     38 H16         0.5457   -3.0900   -1.7676 H         1 <0>         0.0000
     39 H17        -0.3565    0.0379    1.8148 H         1 <0>         0.0000
     40 H18         1.0868    1.0659    1.9547 H         1 <0>         0.0000
     41 H19         0.8449   -0.2838    3.0846 H         1 <0>         0.0000
     42 H20         6.9244   -3.1220    3.6370 H         1 <0>         0.0000
     43 H21         6.1083   -1.5861    3.3865 H         1 <0>         0.0000
     44 H22         7.1283   -2.3661   -0.0797 H         1 <0>         0.0000
     45 H23         7.5195   -1.4064    1.3527 H         1 <0>         0.0000
     46 H24         5.9704   -4.0198    1.5260 H         1 <0>         0.0000
     47 H25         2.6549   -2.1876   -0.4426 H         1 <0>         0.0000
     48 H26         3.8848   -2.7101    3.5951 H         1 <0>         0.0000
     49 H27         1.7849   -0.4599    0.2815 H         1 <0>         0.0000
     50 H28         3.8157   -4.1378    1.3829 H         1 <0>         0.0000
@<TRIPOS>BOND
     1    1   18 am
     2    1   20 2
     3    2   12 1
     4    2   17 am
     5    2   21 2
     6    3   13 1
     7    3   16 am
     8    3   22 2
     9    4   14 1
    10    5   14 1
    11    6   15 1
    12    7   15 1
    13    8   15 1
    14    9   16 1
    15   10   12 1
    16   10   14 1
    17   11   12 1
    18   11   18 1
    19   13   15 1
    20   13   17 1
    21   18   19 1
    22    1   23 1
    23    4   24 1
    24    4   25 1
    25    4   26 1
    26    5   27 1
    27    5   28 1
    28    5   29 1
    29    6   30 1
    30    6   31 1
    31    6   32 1
    32    7   33 1
    33    7   34 1
    34    7   35 1
    35    8   36 1
    36    8   37 1
    37    8   38 1
    38    9   39 1
    39    9   40 1
    40    9   41 1
    41   10   42 1
    42   10   43 1
    43   11   44 1
    44   11   45 1
    45   12   46 1
    46   13   47 1
    47   14   48 1
    48   16   49 1
    49   17   50 1
@<TRIPOS>MOLECULE
LIGAND
   50    49     0     0     0
SMALL
NO_CHARGES

@<TRIPOS>ATOM
      1 C1          7.8390   -4.4407   -0.3957 C.2       1 <0>         0.0000
      2 C2          4.7609   -2.3304    1.0158 C.2       1 <0>         0.0000
      3 C3          1.6238   -2.1763    1.4428 C.2       1 <0>         0.0000
      4 C4          5.4286   -5.0551    3.9022 C.3       1 <0>         0.0000
      5 C5          5.1681   -3.1669    5.5205 C.3       1 <0>         0.0000
      6 C6          2.6382   -4.8237   -1.2732 C.3       1 <0>         0.0000
      7 C7          1.4139   -5.1834    0.8654 C.3       1 <0>         0.0000
      8 C8          0.3871   -3.7862   -0.9377 C.3       1 <0>         0.0000
      9 C9          1.3383    0.0348    2.5199 C.3       1 <0>         0.0000
     10 C10         6.0212   -2.6662    3.2096 C.3       1 <0>         0.0000
     11 C11         7.2695   -2.4142    1.0053 C.3       1 <0>         0.0000
     12 C12         5.9953   -2.9363    1.6910 C.3       1 <0>         0.0000
     13 C13         2.4245   -2.8999    0.3599 C.3       1 <0>         0.0000
     14 C14         5.0884   -3.5706    4.0452 C.3       1 <0>         0.0000
     15 C15         1.7114   -4.1488   -0.2382 C.3       1 <0>         0.0000
     16 N1          1.9549   -0.8333    1.5455 N.am      1 <0>         0.0000
     17 N2          3.6959   -3.2182    0.9688 N.am      1 <0>         0.0000
     18 N3          7.5808   -3.1022   -0.2189 N.am      1 <0>         0.0000
     19 O1          7.6186   -2.2950   -1.3390 O.3       1 <0>         0.0000
     20 O2          7.8488   -5.3003    0.4804 O.2       1 <0>         0.0000
     21 O3          4.7482   -1.1914    0.5542 O.2       1 <0>         0.0000
     22 O4          0.7950   -2.7447    2.1522 O.2       1 <0>         0.0000
     23 H1          8.0512   -4.7140   -1.4445 H         1 <0>         0.0000
     24 H2          6.4596   -5.2491    4.2175 H         1 <0>         0.0000
     25 H3          5.3256   -5.3883    2.8641 H         1 <0>         0.0000
     26 H4          4.7804   -5.6761    4.5273 H         1 <0>         0.0000
     27 H5          6.1838   -3.2884    5.9121 H         1 <0>         0.0000
     28 H6          4.8754   -2.1200    5.6540 H         1 <0>         0.0000
     29 H7          4.4947   -3.7797    6.1290 H         1 <0>         0.0000
     30 H8          2.8872   -4.1345   -2.0879 H         1 <0>         0.0000
     31 H9          2.1738   -5.7124   -1.7140 H         1 <0>         0.0000
     32 H10         3.5794   -5.1449   -0.8119 H         1 <0>         0.0000
     33 H11         0.7565   -4.7621    1.6349 H         1 <0>         0.0000
     34 H12         2.3282   -5.5113    1.3711 H         1 <0>         0.0000
     35 H13         0.9158   -6.0685    0.4541 H         1 <0>         0.0000
     36 H14        -0.3050   -3.3025   -0.2384 H         1 <0>         0.0000
     37 H15        -0.1179   -4.6740   -1.3329 H         1 <0>         0.0000
     38 H16         0.5457   -3.0900   -1.7676 H         1 <0>         0.0000
     39 H17         0.4402    0.4941    2.0989 H         1 <0>         0.0000
     40 H18         2.0331    0.8259    2.8147 H         1 <0>         0.0000
     41 H19         1.0580   -0.5350    3.4100 H         1 <0>         0.0000
     42 H20         7.0493   -2.7891    3.5757 H         1 <0>         0.0000
     43 H21         5.7503   -1.6191    3.3985 H         1 <0>         0.0000
     44 H22         7.1657   -1.3514    0.7623 H         1 <0>         0.0000
     45 H23         8.1413   -2.5219    1.6590 H         1 <0>         0.0000
     46 H24         5.9704   -4.0198    1.5260 H         1 <0>         0.0000
     47 H25         2.6549   -2.1876   -0.4426 H         1 <0>         0.0000
     48 H26         4.0519   -3.4254    3.7195 H         1 <0>         0.0000
     49 H27         2.6527   -0.4488    0.9157 H         1 <0>         0.0000
     50 H28         3.8157   -4.1378    1.3829 H         1 <0>         0.0000
@<TRIPOS>BOND
     1    1   18 am
     2    1   20 2
     3    2   12 1
     4    2   17 am
     5    2   21 2
     6    3   13 1
     7    3   16 am
     8    3   22 2
     9    4   14 1
    10    5   14 1
    11    6   15 1
    12    7   15 1
    13    8   15 1
    14    9   16 1
    15   10   12 1
    16   10   14 1
    17   11   12 1
    18   11   18 1
    19   13   15 1
    20   13   17 1
    21   18   19 1
    22    1   23 1
    23    4   24 1
    24    4   25 1
    25    4   26 1
    26    5   27 1
    27    5   28 1
    28    5   29 1
    29    6   30 1
    30    6   31 1
    31    6   32 1
    32    7   33 1
    33    7   34 1
    34    7   35 1
    35    8   36 1
    36    8   37 1
    37    8   38 1
    38    9   39 1
    39    9   40 1
    40    9   41 1
    41   10   42 1
    42   10   43 1
    43   11   44 1
    44   11   45 1
    45   12   46 1
    46   13   47 1
    47   14   48 1
    48   16   49 1
    49   17   50 1
@<TRIPOS>MOLECULE
LIGAND
   50    49     0     0     0
SMALL
NO_CHARGES

@<TRIPOS>ATOM
      1 C1          7.5069   -5.4885    0.0335 C.2       1 <0>         0.0000
      2 C2          4.7609   -2.3304    1.0158 C.2       1 <0>         0.0000
      3 C3          1.4114   -2.9063    1.5049 C.2       1 <0>         0.0000
      4 C4          4.8998   -3.3220    4.5808 C.3       1 <0>         0.0000
      5 C5          5.9126   -1.1117    5.1647 C.3       1 <0>         0.0000
      6 C6          2.6765   -3.3019   -2.1277 C.3       1 <0>         0.0000
      7 C7          2.6544   -5.2554   -0.5834 C.3       1 <0>         0.0000
      8 C8          0.5425   -3.9869   -1.0173 C.3       1 <0>         0.0000
      9 C9          0.8046   -4.1182    3.5770 C.3       1 <0>         0.0000
     10 C10         6.4405   -2.1272    2.9267 C.3       1 <0>         0.0000
     11 C11         7.1342   -3.0688    0.6654 C.3       1 <0>         0.0000
     12 C12         5.9953   -2.9363    1.6910 C.3       1 <0>         0.0000
     13 C13         2.4245   -2.8999    0.3599 C.3       1 <0>         0.0000
     14 C14         5.3645   -1.9750    4.0244 C.3       1 <0>         0.0000
     15 C15         2.0646   -3.8508   -0.8201 C.3       1 <0>         0.0000
     16 N1          1.6532   -3.9132    2.4277 N.am      1 <0>         0.0000
     17 N2          3.6959   -3.2182    0.9688 N.am      1 <0>         0.0000
     18 N3          7.0083   -4.2255   -0.1801 N.am      1 <0>         0.0000
     19 O1          6.2940   -4.0132   -1.3430 O.3       1 <0>         0.0000
     20 O2          8.1609   -5.8564    1.0048 O.2       1 <0>         0.0000
     21 O3          4.7482   -1.1914    0.5542 O.2       1 <0>         0.0000
     22 O4          0.4758   -2.1105    1.5728 O.2       1 <0>         0.0000
     23 H1          7.2671   -6.1999   -0.7765 H         1 <0>         0.0000
     24 H2          5.7423   -3.8772    5.0075 H         1 <0>         0.0000
     25 H3          4.4501   -3.9417    3.7978 H         1 <0>         0.0000
     26 H4          4.1642   -3.1925    5.3800 H         1 <0>         0.0000
     27 H5          6.7922   -1.5734    5.6261 H         1 <0>         0.0000
     28 H6          6.2016   -0.1209    4.7985 H         1 <0>         0.0000
     29 H7          5.1564   -0.9697    5.9440 H         1 <0>         0.0000
     30 H8          2.2940   -2.2998   -2.3517 H         1 <0>         0.0000
     31 H9          2.4502   -3.9477   -2.9831 H         1 <0>         0.0000
     32 H10         3.7681   -3.2311   -2.0551 H         1 <0>         0.0000
     33 H11         2.2564   -5.7011    0.3358 H         1 <0>         0.0000
     34 H12         3.7440   -5.2254   -0.4780 H         1 <0>         0.0000
     35 H13         2.4105   -5.9315   -1.4105 H         1 <0>         0.0000
     36 H14         0.0636   -4.3749   -0.1106 H         1 <0>         0.0000
     37 H15         0.3004   -4.6763   -1.8330 H         1 <0>         0.0000
     38 H16         0.0759   -3.0219   -1.2405 H         1 <0>         0.0000
     39 H17         1.1692   -3.5298    4.4230 H         1 <0>         0.0000
     40 H18         0.7992   -5.1745    3.8593 H         1 <0>         0.0000
     41 H19        -0.2198   -3.8109    3.3501 H         1 <0>         0.0000
     42 H20         7.3251   -2.6069    3.3666 H         1 <0>         0.0000
     43 H21         6.7588   -1.1249    2.6110 H         1 <0>         0.0000
     44 H22         7.1645   -2.1910    0.0112 H         1 <0>         0.0000
     45 H23         8.1063   -3.1455    1.1636 H         1 <0>         0.0000
     46 H24         5.7385   -3.9535    2.0094 H         1 <0>         0.0000
     47 H25         2.5279   -1.8729   -0.0129 H         1 <0>         0.0000
     48 H26         4.4913   -1.4577    3.6101 H         1 <0>         0.0000
     49 H27         2.4520   -4.5251    2.2903 H         1 <0>         0.0000
     50 H28         3.8157   -4.1378    1.3829 H         1 <0>         0.0000
@<TRIPOS>BOND
     1    1   18 am
     2    1   20 2
     3    2   12 1
     4    2   17 am
     5    2   21 2
     6    3   13 1
     7    3   16 am
     8    3   22 2
     9    4   14 1
    10    5   14 1
    11    6   15 1
    12    7   15 1
    13    8   15 1
    14    9   16 1
    15   10   12 1
    16   10   14 1
    17   11   12 1
    18   11   18 1
    19   13   15 1
    20   13   17 1
    21   18   19 1
    22    1   23 1
    23    4   24 1
    24    4   25 1
    25    4   26 1
    26    5   27 1
    27    5   28 1
    28    5   29 1
    29    6   30 1
    30    6   31 1
    31    6   32 1
    32    7   33 1
    33    7   34 1
    34    7   35 1
    35    8   36 1
    36    8   37 1
    37    8   38 1
    38    9   39 1
    39    9   40 1
    40    9   41 1
    41   10   42 1
    42   10   43 1
    43   11   44 1
    44   11   45 1
    45   12   46 1
    46   13   47 1
    47   14   48 1
    48   16   49 1
    49   17   50 1
@<TRIPOS>MOLECULE
LIGAND
   50    49     0     0     0
SMALL
NO_CHARGES

@<TRIPOS>ATOM
      1 C1          7.3535   -4.0001   -0.9624 C.2       1 <0>         0.0000
      2 C2          4.7609   -2.3304    1.0158 C.2       1 <0>         0.0000
      3 C3          1.3743   -3.6105    1.2141 C.2       1 <0>         0.0000
      4 C4          5.4286   -5.0551    3.9022 C.3       1 <0>         0.0000
      5 C5          5.1681   -3.1669    5.5205 C.3       1 <0>         0.0000
      6 C6          2.1676   -1.9758   -1.9839 C.3       1 <0>         0.0000
      7 C7          3.7004   -3.9015   -1.6047 C.3       1 <0>         0.0000
      8 C8          1.2246   -4.2374   -1.4817 C.3       1 <0>         0.0000
      9 C9         -0.8899   -3.3247    2.1744 C.3       1 <0>         0.0000
     10 C10         6.0212   -2.6662    3.2096 C.3       1 <0>         0.0000
     11 C11         7.2695   -2.4142    1.0053 C.3       1 <0>         0.0000
     12 C12         5.9953   -2.9363    1.6910 C.3       1 <0>         0.0000
     13 C13         2.4245   -2.8999    0.3599 C.3       1 <0>         0.0000
     14 C14         5.0884   -3.5706    4.0452 C.3       1 <0>         0.0000
     15 C15         2.3718   -3.2623   -1.1540 C.3       1 <0>         0.0000
     16 N1          0.2223   -2.8565    1.3827 N.am      1 <0>         0.0000
     17 N2          3.6959   -3.2182    0.9688 N.am      1 <0>         0.0000
     18 N3          7.3436   -2.7497   -0.3914 N.am      1 <0>         0.0000
     19 O1          7.4124   -1.6632   -1.2413 O.3       1 <0>         0.0000
     20 O2          7.2996   -5.0713   -0.3656 O.2       1 <0>         0.0000
     21 O3          4.7482   -1.1914    0.5542 O.2       1 <0>         0.0000
     22 O4          1.5569   -4.7218    1.7089 O.2       1 <0>         0.0000
     23 H1          7.4170   -3.9808   -2.0648 H         1 <0>         0.0000
     24 H2          6.4596   -5.2491    4.2175 H         1 <0>         0.0000
     25 H3          5.3256   -5.3883    2.8641 H         1 <0>         0.0000
     26 H4          4.7804   -5.6761    4.5273 H         1 <0>         0.0000
     27 H5          6.1838   -3.2884    5.9121 H         1 <0>         0.0000
     28 H6          4.8754   -2.1200    5.6540 H         1 <0>         0.0000
     29 H7          4.4947   -3.7797    6.1290 H         1 <0>         0.0000
     30 H8          1.2340   -1.4727   -1.7080 H         1 <0>         0.0000
     31 H9          2.1309   -2.1882   -3.0579 H         1 <0>         0.0000
     32 H10         2.9869   -1.2657   -1.8218 H         1 <0>         0.0000
     33 H11         3.9033   -4.8245   -1.0490 H         1 <0>         0.0000
     34 H12         4.5507   -3.2327   -1.4344 H         1 <0>         0.0000
     35 H13         3.6755   -4.1564   -2.6701 H         1 <0>         0.0000
     36 H14         1.3286   -5.1690   -0.9131 H         1 <0>         0.0000
     37 H15         1.2119   -4.5047   -2.5437 H         1 <0>         0.0000
     38 H16         0.2480   -3.8124   -1.2284 H         1 <0>         0.0000
     39 H17        -1.5882   -3.8849    1.5471 H         1 <0>         0.0000
     40 H18        -1.4189   -2.4783    2.6208 H         1 <0>         0.0000
     41 H19        -0.5348   -3.9781    2.9759 H         1 <0>         0.0000
     42 H20         7.0493   -2.7891    3.5757 H         1 <0>         0.0000
     43 H21         5.7503   -1.6191    3.3985 H         1 <0>         0.0000
     44 H22         7.3249   -1.3230    1.0798 H         1 <0>         0.0000
     45 H23         8.1679   -2.8255    1.4773 H         1 <0>         0.0000
     46 H24         5.9704   -4.0198    1.5260 H         1 <0>         0.0000
     47 H25         2.3043   -1.8161    0.4837 H         1 <0>         0.0000
     48 H26         4.0519   -3.4254    3.7195 H         1 <0>         0.0000
     49 H27         0.1595   -1.9470    0.9352 H         1 <0>         0.0000
     50 H28         3.8157   -4.1378    1.3829 H         1 <0>         0.0000
@<TRIPOS>BOND
     1    1   18 am
     2    1   20 2
     3    2   12 1
     4    2   17 am
     5    2   21 2
     6    3   13 1
     7    3   16 am
     8    3   22 2
     9    4   14 1
    10    5   14 1
    11    6   15 1
    12    7   15 1
    13    8   15 1
    14    9   16 1
    15   10   12 1
    16   10   14 1
    17   11   12 1
    18   11   18 1
    19   13   15 1
    20   13   17 1
    21   18   19 1
    22    1   23 1
    23    4   24 1
    24    4   25 1
    25    4   26 1
    26    5   27 1
    27    5   28 1
    28    5   29 1
    29    6   30 1
    30    6   31 1
    31    6   32 1
    32    7   33 1
    33    7   34 1
    34    7   35 1
    35    8   36 1
    36    8   37 1
    37    8   38 1
    38    9   39 1
    39    9   40 1
    40    9   41 1
    41   10   42 1
    42   10   43 1
    43   11   44 1
    44   11   45 1
    45   12   46 1
    46   13   47 1
    47   14   48 1
    48   16   49 1
    49   17   50 1
@<TRIPOS>MOLECULE
LIGAND
   50    49     0     0     0
SMALL
NO_CHARGES

@<TRIPOS>ATOM
      1 C1          8.7185   -5.1949    0.9438 C.2       1 <0>         0.0000
      2 C2          4.7609   -2.3304    1.0158 C.2       1 <0>         0.0000
      3 C3          1.4114   -2.9063    1.5049 C.2       1 <0>         0.0000
      4 C4          7.0285   -1.4411    4.2202 C.3       1 <0>         0.0000
      5 C5          8.3048    0.0740    2.6945 C.3       1 <0>         0.0000
      6 C6          3.1857   -3.8003   -1.8813 C.3       1 <0>         0.0000
      7 C7          1.9543   -5.3076   -0.3278 C.3       1 <0>         0.0000
      8 C8          0.7370   -3.4626   -1.4991 C.3       1 <0>         0.0000
      9 C9          0.8046   -4.1182    3.5770 C.3       1 <0>         0.0000
     10 C10         7.1850   -1.9548    1.7203 C.3       1 <0>         0.0000
     11 C11         6.3716   -4.2554    0.9948 C.3       1 <0>         0.0000
     12 C12         5.9953   -2.9363    1.6910 C.3       1 <0>         0.0000
     13 C13         2.4245   -2.8999    0.3599 C.3       1 <0>         0.0000
     14 C14         7.0962   -0.8603    2.8067 C.3       1 <0>         0.0000
     15 C15         2.0646   -3.8508   -0.8201 C.3       1 <0>         0.0000
     16 N1          1.6532   -3.9132    2.4277 N.am      1 <0>         0.0000
     17 N2          3.6959   -3.2182    0.9688 N.am      1 <0>         0.0000
     18 N3          7.5302   -4.8900    1.5637 N.am      1 <0>         0.0000
     19 O1          7.4064   -5.2237    2.8983 O.3       1 <0>         0.0000
     20 O2          9.0034   -4.9733   -0.2294 O.2       1 <0>         0.0000
     21 O3          4.7482   -1.1914    0.5542 O.2       1 <0>         0.0000
     22 O4          0.4758   -2.1105    1.5728 O.2       1 <0>         0.0000
     23 H1          9.4507   -5.6841    1.6104 H         1 <0>         0.0000
     24 H2          7.9109   -2.0554    4.4301 H         1 <0>         0.0000
     25 H3          6.1416   -2.0705    4.3492 H         1 <0>         0.0000
     26 H4          7.0010   -0.6512    4.9764 H         1 <0>         0.0000
     27 H5          9.2434   -0.4691    2.8487 H         1 <0>         0.0000
     28 H6          8.3428    0.5443    1.7062 H         1 <0>         0.0000
     29 H7          8.2495    0.8738    3.4405 H         1 <0>         0.0000
     30 H8          3.3133   -2.7845   -2.2720 H         1 <0>         0.0000
     31 H9          2.9723   -4.4622   -2.7277 H         1 <0>         0.0000
     32 H10         4.1465   -4.1154   -1.4578 H         1 <0>         0.0000
     33 H11         1.1705   -5.4095    0.4319 H         1 <0>         0.0000
     34 H12         2.8879   -5.6535    0.1281 H         1 <0>         0.0000
     35 H13         1.7055   -5.9859   -1.1517 H         1 <0>         0.0000
     36 H14        -0.0909   -3.4848   -0.7807 H         1 <0>         0.0000
     37 H15         0.4812   -4.1517   -2.3109 H         1 <0>         0.0000
     38 H16         0.7762   -2.4505   -1.9146 H         1 <0>         0.0000
     39 H17         1.1692   -3.5298    4.4230 H         1 <0>         0.0000
     40 H18         0.7992   -5.1745    3.8593 H         1 <0>         0.0000
     41 H19        -0.2198   -3.8109    3.3501 H         1 <0>         0.0000
     42 H20         8.1124   -2.5237    1.8705 H         1 <0>         0.0000
     43 H21         7.2788   -1.4660    0.7417 H         1 <0>         0.0000
     44 H22         5.5455   -4.9716    1.0590 H         1 <0>         0.0000
     45 H23         6.5888   -4.0932   -0.0661 H         1 <0>         0.0000
     46 H24         5.7229   -3.1911    2.7220 H         1 <0>         0.0000
     47 H25         2.5279   -1.8729   -0.0129 H         1 <0>         0.0000
     48 H26         6.1964   -0.2560    2.6429 H         1 <0>         0.0000
     49 H27         2.4520   -4.5251    2.2903 H         1 <0>         0.0000
     50 H28         3.8157   -4.1378    1.3829 H         1 <0>         0.0000
@<TRIPOS>BOND
     1    1   18 am
     2    1   20 2
     3    2   12 1
     4    2   17 am
     5    2   21 2
     6    3   13 1
     7    3   16 am
     8    3   22 2
     9    4   14 1
    10    5   14 1
    11    6   15 1
    12    7   15 1
    13    8   15 1
    14    9   16 1
    15   10   12 1
    16   10   14 1
    17   11   12 1
    18   11   18 1
    19   13   15 1
    20   13   17 1
    21   18   19 1
    22    1   23 1
    23    4   24 1
    24    4   25 1
    25    4   26 1
    26    5   27 1
    27    5   28 1
    28    5   29 1
    29    6   30 1
    30    6   31 1
    31    6   32 1
    32    7   33 1
    33    7   34 1
    34    7   35 1
    35    8   36 1
    36    8   37 1
    37    8   38 1
    38    9   39 1
    39    9   40 1
    40    9   41 1
    41   10   42 1
    42   10   43 1
    43   11   44 1
    44   11   45 1
    45   12   46 1
    46   13   47 1
    47   14   48 1
    48   16   49 1
    49   17   50 1
@<TRIPOS>MOLECULE
LIGAND
   50    49     0     0     0
SMALL
NO_CHARGES

@<TRIPOS>ATOM
      1 C1          7.3535   -4.0001   -0.9624 C.2       1 <0>         0.0000
      2 C2          4.7609   -2.3304    1.0158 C.2       1 <0>         0.0000
      3 C3          1.4114   -2.9063    1.5049 C.2       1 <0>         0.0000
      4 C4          5.4286   -5.0551    3.9022 C.3       1 <0>         0.0000
      5 C5          5.1681   -3.1669    5.5205 C.3       1 <0>         0.0000
      6 C6          3.1857   -3.8003   -1.8813 C.3       1 <0>         0.0000
      7 C7          1.9543   -5.3076   -0.3278 C.3       1 <0>         0.0000
      8 C8          0.7370   -3.4626   -1.4991 C.3       1 <0>         0.0000
      9 C9          1.0123   -1.9958    3.7725 C.3       1 <0>         0.0000
     10 C10         6.0212   -2.6662    3.2096 C.3       1 <0>         0.0000
     11 C11         7.2695   -2.4142    1.0053 C.3       1 <0>         0.0000
     12 C12         5.9953   -2.9363    1.6910 C.3       1 <0>         0.0000
     13 C13         2.4245   -2.8999    0.3599 C.3       1 <0>         0.0000
     14 C14         5.0884   -3.5706    4.0452 C.3       1 <0>         0.0000
     15 C15         2.0646   -3.8508   -0.8201 C.3       1 <0>         0.0000
     16 N1          1.8071   -2.1159    2.5738 N.am      1 <0>         0.0000
     17 N2          3.6959   -3.2182    0.9688 N.am      1 <0>         0.0000
     18 N3          7.3436   -2.7497   -0.3914 N.am      1 <0>         0.0000
     19 O1          7.4124   -1.6632   -1.2413 O.3       1 <0>         0.0000
     20 O2          7.4178   -4.2499   -2.1624 O.2       1 <0>         0.0000
     21 O3          4.7482   -1.1914    0.5542 O.2       1 <0>         0.0000
     22 O4          0.3728   -3.5647    1.4736 O.2       1 <0>         0.0000
     23 H1          7.2963   -4.8213   -0.2263 H         1 <0>         0.0000
     24 H2          6.4596   -5.2491    4.2175 H         1 <0>         0.0000
     25 H3          5.3256   -5.3883    2.8641 H         1 <0>         0.0000
     26 H4          4.7804   -5.6761    4.5273 H         1 <0>         0.0000
     27 H5          6.1838   -3.2884    5.9121 H         1 <0>         0.0000
     28 H6          4.8754   -2.1200    5.6540 H         1 <0>         0.0000
     29 H7          4.4947   -3.7797    6.1290 H         1 <0>         0.0000
     30 H8          3.3133   -2.7845   -2.2720 H         1 <0>         0.0000
     31 H9          2.9723   -4.4622   -2.7277 H         1 <0>         0.0000
     32 H10         4.1465   -4.1154   -1.4578 H         1 <0>         0.0000
     33 H11         1.1705   -5.4095    0.4319 H         1 <0>         0.0000
     34 H12         2.8879   -5.6535    0.1281 H         1 <0>         0.0000
     35 H13         1.7055   -5.9859   -1.1517 H         1 <0>         0.0000
     36 H14        -0.0909   -3.4848   -0.7807 H         1 <0>         0.0000
     37 H15         0.4812   -4.1517   -2.3109 H         1 <0>         0.0000
     38 H16         0.7762   -2.4505   -1.9146 H         1 <0>         0.0000
     39 H17         0.3100   -1.1637    3.6759 H         1 <0>         0.0000
     40 H18         1.6568   -1.8137    4.6368 H         1 <0>         0.0000
     41 H19         0.4467   -2.9155    3.9448 H         1 <0>         0.0000
     42 H20         7.0493   -2.7891    3.5757 H         1 <0>         0.0000
     43 H21         5.7503   -1.6191    3.3985 H         1 <0>         0.0000
     44 H22         7.3249   -1.3230    1.0798 H         1 <0>         0.0000
     45 H23         8.1679   -2.8255    1.4773 H         1 <0>         0.0000
     46 H24         5.9704   -4.0198    1.5260 H         1 <0>         0.0000
     47 H25         2.5279   -1.8729   -0.0129 H         1 <0>         0.0000
     48 H26         4.0519   -3.4254    3.7195 H         1 <0>         0.0000
     49 H27         2.6832   -1.6060    2.5111 H         1 <0>         0.0000
     50 H28         3.8157   -4.1378    1.3829 H         1 <0>         0.0000
@<TRIPOS>BOND
     1    1   18 am
     2    1   20 2
     3    2   12 1
     4    2   17 am
     5    2   21 2
     6    3   13 1
     7    3   16 am
     8    3   22 2
     9    4   14 1
    10    5   14 1
    11    6   15 1
    12    7   15 1
    13    8   15 1
    14    9   16 1
    15   10   12 1
    16   10   14 1
    17   11   12 1
    18   11   18 1
    19   13   15 1
    20   13   17 1
    21   18   19 1
    22    1   23 1
    23    4   24 1
    24    4   25 1
    25    4   26 1
    26    5   27 1
    27    5   28 1
    28    5   29 1
    29    6   30 1
    30    6   31 1
    31    6   32 1
    32    7   33 1
    33    7   34 1
    34    7   35 1
    35    8   36 1
    36    8   37 1
    37    8   38 1
    38    9   39 1
    39    9   40 1
    40    9   41 1
    41   10   42 1
    42   10   43 1
    43   11   44 1
    44   11   45 1
    45   12   46 1
    46   13   47 1
    47   14   48 1
    48   16   49 1
    49   17   50 1
@<TRIPOS>MOLECULE
LIGAND
   50    49     0     0     0
SMALL
NO_CHARGES

@<TRIPOS>ATOM
      1 C1          7.5576   -2.3672    4.6544 C.2       1 <0>         0.0000
      2 C2          4.7609   -2.3304    1.0158 C.2       1 <0>         0.0000
      3 C3          1.9548   -1.6162    1.0446 C.2       1 <0>         0.0000
      4 C4          7.9668   -2.9805   -0.7195 C.3       1 <0>         0.0000
      5 C5          7.2752   -5.3485   -1.1277 C.3       1 <0>         0.0000
      6 C6          2.0155   -5.3270   -0.2360 C.3       1 <0>         0.0000
      7 C7          1.1035   -4.4371    1.9036 C.3       1 <0>         0.0000
      8 C8          0.0778   -3.7458   -0.2707 C.3       1 <0>         0.0000
      9 C9          1.8710   -0.4888    3.2474 C.3       1 <0>         0.0000
     10 C10         6.4903   -4.2069    0.9698 C.3       1 <0>         0.0000
     11 C11         5.6912   -3.2135    3.1734 C.3       1 <0>         0.0000
     12 C12         5.9953   -2.9363    1.6910 C.3       1 <0>         0.0000
     13 C13         2.4245   -2.8999    0.3599 C.3       1 <0>         0.0000
     14 C14         6.8518   -4.0083   -0.5189 C.3       1 <0>         0.0000
     15 C15         1.4067   -4.0765    0.4357 C.3       1 <0>         0.0000
     16 N1          2.2464   -1.5955    2.4005 N.am      1 <0>         0.0000
     17 N2          3.6959   -3.2182    0.9688 N.am      1 <0>         0.0000
     18 N3          6.8729   -3.3510    3.9817 N.am      1 <0>         0.0000
     19 O1          7.3583   -4.6406    4.0766 O.3       1 <0>         0.0000
     20 O2          7.2727   -1.1736    4.6825 O.2       1 <0>         0.0000
     21 O3          4.7482   -1.1914    0.5542 O.2       1 <0>         0.0000
     22 O4          1.3637   -0.7184    0.4464 O.2       1 <0>         0.0000
     23 H1          8.4389   -2.7411    5.2052 H         1 <0>         0.0000
     24 H2          8.8753   -3.2848   -0.1883 H         1 <0>         0.0000
     25 H3          7.6713   -1.9951   -0.3441 H         1 <0>         0.0000
     26 H4          8.2323   -2.8793   -1.7758 H         1 <0>         0.0000
     27 H5          8.1599   -5.7527   -0.6240 H         1 <0>         0.0000
     28 H6          6.4698   -6.0859   -1.0440 H         1 <0>         0.0000
     29 H7          7.5125   -5.2358   -2.1909 H         1 <0>         0.0000
     30 H8          2.2541   -5.1329   -1.2877 H         1 <0>         0.0000
     31 H9          1.3305   -6.1810   -0.1982 H         1 <0>         0.0000
     32 H10         2.9425   -5.6329    0.2628 H         1 <0>         0.0000
     33 H11         0.6668   -3.5850    2.4375 H         1 <0>         0.0000
     34 H12         2.0104   -4.7234    2.4466 H         1 <0>         0.0000
     35 H13         0.3913   -5.2673    1.9681 H         1 <0>         0.0000
     36 H14        -0.3923   -2.8611    0.1746 H         1 <0>         0.0000
     37 H15        -0.6390   -4.5698   -0.1902 H         1 <0>         0.0000
     38 H16         0.2276   -3.5306   -1.3336 H         1 <0>         0.0000
     39 H17         2.6703    0.2566    3.2680 H         1 <0>         0.0000
     40 H18         1.6893   -0.8381    4.2675 H         1 <0>         0.0000
     41 H19         0.9594   -0.0170    2.8710 H         1 <0>         0.0000
     42 H20         7.3727   -4.5944    1.4964 H         1 <0>         0.0000
     43 H21         5.7222   -4.9884    1.0394 H         1 <0>         0.0000
     44 H22         5.0986   -2.3982    3.6018 H         1 <0>         0.0000
     45 H23         5.1177   -4.1388    3.2917 H         1 <0>         0.0000
     46 H24         6.7931   -2.1847    1.6686 H         1 <0>         0.0000
     47 H25         2.6512   -2.6760   -0.6903 H         1 <0>         0.0000
     48 H26         5.9671   -3.6628   -1.0661 H         1 <0>         0.0000
     49 H27         2.7394   -2.3834    2.8099 H         1 <0>         0.0000
     50 H28         3.8157   -4.1378    1.3829 H         1 <0>         0.0000
@<TRIPOS>BOND
     1    1   18 am
     2    1   20 2
     3    2   12 1
     4    2   17 am
     5    2   21 2
     6    3   13 1
     7    3   16 am
     8    3   22 2
     9    4   14 1
    10    5   14 1
    11    6   15 1
    12    7   15 1
    13    8   15 1
    14    9   16 1
    15   10   12 1
    16   10   14 1
    17   11   12 1
    18   11   18 1
    19   13   15 1
    20   13   17 1
    21   18   19 1
    22    1   23 1
    23    4   24 1
    24    4   25 1
    25    4   26 1
    26    5   27 1
    27    5   28 1
    28    5   29 1
    29    6   30 1
    30    6   31 1
    31    6   32 1
    32    7   33 1
    33    7   34 1
    34    7   35 1
    35    8   36 1
    36    8   37 1
    37    8   38 1
    38    9   39 1
    39    9   40 1
    40    9   41 1
    41   10   42 1
    42   10   43 1
    43   11   44 1
    44   11   45 1
    45   12   46 1
    46   13   47 1
    47   14   48 1
    48   16   49 1
    49   17   50 1
@<TRIPOS>MOLECULE
LIGAND
   50    49     0     0     0
SMALL
NO_CHARGES

@<TRIPOS>ATOM
      1 C1          8.7148   -3.8168   -0.5236 C.2       1 <0>         0.0000
      2 C2          4.7609   -2.3304    1.0158 C.2       1 <0>         0.0000
      3 C3          1.4114   -2.9063    1.5049 C.2       1 <0>         0.0000
      4 C4          5.4286   -5.0551    3.9022 C.3       1 <0>         0.0000
      5 C5          5.1681   -3.1669    5.5205 C.3       1 <0>         0.0000
      6 C6          2.6765   -3.3019   -2.1277 C.3       1 <0>         0.0000
      7 C7          2.6544   -5.2554   -0.5834 C.3       1 <0>         0.0000
      8 C8          0.5425   -3.9869   -1.0173 C.3       1 <0>         0.0000
      9 C9         -0.0359   -1.4126    2.8483 C.3       1 <0>         0.0000
     10 C10         6.0212   -2.6662    3.2096 C.3       1 <0>         0.0000
     11 C11         7.2695   -2.4142    1.0053 C.3       1 <0>         0.0000
     12 C12         5.9953   -2.9363    1.6910 C.3       1 <0>         0.0000
     13 C13         2.4245   -2.8999    0.3599 C.3       1 <0>         0.0000
     14 C14         5.0884   -3.5706    4.0452 C.3       1 <0>         0.0000
     15 C15         2.0646   -3.8508   -0.8201 C.3       1 <0>         0.0000
     16 N1          0.9155   -1.6421    1.7876 N.am      1 <0>         0.0000
     17 N2          3.6959   -3.2182    0.9688 N.am      1 <0>         0.0000
     18 N3          7.5808   -3.1022   -0.2189 N.am      1 <0>         0.0000
     19 O1          6.6030   -3.0183   -1.1907 O.3       1 <0>         0.0000
     20 O2          9.6802   -3.9957    0.2130 O.2       1 <0>         0.0000
     21 O3          4.7482   -1.1914    0.5542 O.2       1 <0>         0.0000
     22 O4          1.0981   -3.9285    2.1133 O.2       1 <0>         0.0000
     23 H1          8.7036   -4.2494   -1.5397 H         1 <0>         0.0000
     24 H2          6.4596   -5.2491    4.2175 H         1 <0>         0.0000
     25 H3          5.3256   -5.3883    2.8641 H         1 <0>         0.0000
     26 H4          4.7804   -5.6761    4.5273 H         1 <0>         0.0000
     27 H5          6.1838   -3.2884    5.9121 H         1 <0>         0.0000
     28 H6          4.8754   -2.1200    5.6540 H         1 <0>         0.0000
     29 H7          4.4947   -3.7797    6.1290 H         1 <0>         0.0000
     30 H8          2.2940   -2.2998   -2.3517 H         1 <0>         0.0000
     31 H9          2.4502   -3.9477   -2.9831 H         1 <0>         0.0000
     32 H10         3.7681   -3.2311   -2.0551 H         1 <0>         0.0000
     33 H11         2.2564   -5.7011    0.3358 H         1 <0>         0.0000
     34 H12         3.7440   -5.2254   -0.4780 H         1 <0>         0.0000
     35 H13         2.4105   -5.9315   -1.4105 H         1 <0>         0.0000
     36 H14         0.0636   -4.3749   -0.1106 H         1 <0>         0.0000
     37 H15         0.3004   -4.6763   -1.8330 H         1 <0>         0.0000
     38 H16         0.0759   -3.0219   -1.2405 H         1 <0>         0.0000
     39 H17        -1.0554   -1.5084    2.4658 H         1 <0>         0.0000
     40 H18         0.0924   -0.4080    3.2604 H         1 <0>         0.0000
     41 H19         0.1090   -2.1415    3.6503 H         1 <0>         0.0000
     42 H20         7.0493   -2.7891    3.5757 H         1 <0>         0.0000
     43 H21         5.7503   -1.6191    3.3985 H         1 <0>         0.0000
     44 H22         7.1657   -1.3514    0.7623 H         1 <0>         0.0000
     45 H23         8.1413   -2.5219    1.6590 H         1 <0>         0.0000
     46 H24         5.9704   -4.0198    1.5260 H         1 <0>         0.0000
     47 H25         2.5279   -1.8729   -0.0129 H         1 <0>         0.0000
     48 H26         4.0519   -3.4254    3.7195 H         1 <0>         0.0000
     49 H27         1.2316   -0.8537    1.2310 H         1 <0>         0.0000
     50 H28         3.8157   -4.1378    1.3829 H         1 <0>         0.0000
@<TRIPOS>BOND
     1    1   18 am
     2    1   20 2
     3    2   12 1
     4    2   17 am
     5    2   21 2
     6    3   13 1
     7    3   16 am
     8    3   22 2
     9    4   14 1
    10    5   14 1
    11    6   15 1
    12    7   15 1
    13    8   15 1
    14    9   16 1
    15   10   12 1
    16   10   14 1
    17   11   12 1
    18   11   18 1
    19   13   15 1
    20   13   17 1
    21   18   19 1
    22    1   23 1
    23    4   24 1
    24    4   25 1
    25    4   26 1
    26    5   27 1
    27    5   28 1
    28    5   29 1
    29    6   30 1
    30    6   31 1
    31    6   32 1
    32    7   33 1
    33    7   34 1
    34    7   35 1
    35    8   36 1
    36    8   37 1
    37    8   38 1
    38    9   39 1
    39    9   40 1
    40    9   41 1
    41   10   42 1
    42   10   43 1
    43   11   44 1
    44   11   45 1
    45   12   46 1
    46   13   47 1
    47   14   48 1
    48   16   49 1
    49   17   50 1
@<TRIPOS>MOLECULE
LIGAND
   50    49     0     0     0
SMALL
NO_CHARGES

@<TRIPOS>ATOM
      1 C1          8.2041   -5.3564    0.7906 C.2       1 <0>         0.0000
      2 C2          4.7609   -2.3304    1.0158 C.2       1 <0>         0.0000
      3 C3          1.6238   -2.1763    1.4428 C.2       1 <0>         0.0000
      4 C4          4.3730   -2.6566    4.3349 C.3       1 <0>         0.0000
      5 C5          5.8590   -0.7386    4.9398 C.3       1 <0>         0.0000
      6 C6          2.6382   -4.8237   -1.2732 C.3       1 <0>         0.0000
      7 C7          1.4139   -5.1834    0.8654 C.3       1 <0>         0.0000
      8 C8          0.3871   -3.7862   -0.9377 C.3       1 <0>         0.0000
      9 C9          1.3383    0.0348    2.5199 C.3       1 <0>         0.0000
     10 C10         6.4405   -2.1272    2.9267 C.3       1 <0>         0.0000
     11 C11         7.1342   -3.0688    0.6654 C.3       1 <0>         0.0000
     12 C12         5.9953   -2.9363    1.6910 C.3       1 <0>         0.0000
     13 C13         2.4245   -2.8999    0.3599 C.3       1 <0>         0.0000
     14 C14         5.2854   -1.5605    3.7815 C.3       1 <0>         0.0000
     15 C15         1.7114   -4.1488   -0.2382 C.3       1 <0>         0.0000
     16 N1          1.9549   -0.8333    1.5455 N.am      1 <0>         0.0000
     17 N2          3.6959   -3.2182    0.9688 N.am      1 <0>         0.0000
     18 N3          8.1489   -4.0093    1.0586 N.am      1 <0>         0.0000
     19 O1          9.1831   -3.4656    1.7950 O.3       1 <0>         0.0000
     20 O2          7.3782   -6.0047    0.1549 O.2       1 <0>         0.0000
     21 O3          4.7482   -1.1914    0.5542 O.2       1 <0>         0.0000
     22 O4          0.7950   -2.7447    2.1522 O.2       1 <0>         0.0000
     23 H1          9.0967   -5.8531    1.2102 H         1 <0>         0.0000
     24 H2          4.9413   -3.3577    4.9559 H         1 <0>         0.0000
     25 H3          3.9024   -3.2272    3.5274 H         1 <0>         0.0000
     26 H4          3.5825   -2.2387    4.9650 H         1 <0>         0.0000
     27 H5          6.4829   -1.3559    5.5951 H         1 <0>         0.0000
     28 H6          6.4731    0.0869    4.5647 H         1 <0>         0.0000
     29 H7          5.0558   -0.3059    5.5456 H         1 <0>         0.0000
     30 H8          2.8872   -4.1345   -2.0879 H         1 <0>         0.0000
     31 H9          2.1738   -5.7124   -1.7140 H         1 <0>         0.0000
     32 H10         3.5794   -5.1449   -0.8119 H         1 <0>         0.0000
     33 H11         0.7565   -4.7621    1.6349 H         1 <0>         0.0000
     34 H12         2.3282   -5.5113    1.3711 H         1 <0>         0.0000
     35 H13         0.9158   -6.0685    0.4541 H         1 <0>         0.0000
     36 H14        -0.3050   -3.3025   -0.2384 H         1 <0>         0.0000
     37 H15        -0.1179   -4.6740   -1.3329 H         1 <0>         0.0000
     38 H16         0.5457   -3.0900   -1.7676 H         1 <0>         0.0000
     39 H17         0.4402    0.4941    2.0989 H         1 <0>         0.0000
     40 H18         2.0331    0.8259    2.8147 H         1 <0>         0.0000
     41 H19         1.0580   -0.5350    3.4100 H         1 <0>         0.0000
     42 H20         7.0676   -2.7656    3.5633 H         1 <0>         0.0000
     43 H21         7.0772   -1.2922    2.6058 H         1 <0>         0.0000
     44 H22         6.7419   -3.4007   -0.3017 H         1 <0>         0.0000
     45 H23         7.6368   -2.1087    0.5083 H         1 <0>         0.0000
     46 H24         5.7385   -3.9535    2.0094 H         1 <0>         0.0000
     47 H25         2.6549   -2.1876   -0.4426 H         1 <0>         0.0000
     48 H26         4.6755   -0.8860    3.1694 H         1 <0>         0.0000
     49 H27         2.6527   -0.4488    0.9157 H         1 <0>         0.0000
     50 H28         3.8157   -4.1378    1.3829 H         1 <0>         0.0000
@<TRIPOS>BOND
     1    1   18 am
     2    1   20 2
     3    2   12 1
     4    2   17 am
     5    2   21 2
     6    3   13 1
     7    3   16 am
     8    3   22 2
     9    4   14 1
    10    5   14 1
    11    6   15 1
    12    7   15 1
    13    8   15 1
    14    9   16 1
    15   10   12 1
    16   10   14 1
    17   11   12 1
    18   11   18 1
    19   13   15 1
    20   13   17 1
    21   18   19 1
    22    1   23 1
    23    4   24 1
    24    4   25 1
    25    4   26 1
    26    5   27 1
    27    5   28 1
    28    5   29 1
    29    6   30 1
    30    6   31 1
    31    6   32 1
    32    7   33 1
    33    7   34 1
    34    7   35 1
    35    8   36 1
    36    8   37 1
    37    8   38 1
    38    9   39 1
    39    9   40 1
    40    9   41 1
    41   10   42 1
    42   10   43 1
    43   11   44 1
    44   11   45 1
    45   12   46 1
    46   13   47 1
    47   14   48 1
    48   16   49 1
    49   17   50 1
@<TRIPOS>MOLECULE
LIGAND
   50    49     0     0     0
SMALL
NO_CHARGES

@<TRIPOS>ATOM
      1 C1          8.8786   -4.2413    1.6879 C.2       1 <0>         0.0000
      2 C2          4.7609   -2.3304    1.0158 C.2       1 <0>         0.0000
      3 C3          1.6238   -2.1763    1.4428 C.2       1 <0>         0.0000
      4 C4          5.4286   -5.0551    3.9022 C.3       1 <0>         0.0000
      5 C5          5.1681   -3.1669    5.5205 C.3       1 <0>         0.0000
      6 C6          2.6382   -4.8237   -1.2732 C.3       1 <0>         0.0000
      7 C7          1.4139   -5.1834    0.8654 C.3       1 <0>         0.0000
      8 C8          0.3871   -3.7862   -0.9377 C.3       1 <0>         0.0000
      9 C9          1.3383    0.0348    2.5199 C.3       1 <0>         0.0000
     10 C10         6.0212   -2.6662    3.2096 C.3       1 <0>         0.0000
     11 C11         7.2695   -2.4142    1.0053 C.3       1 <0>         0.0000
     12 C12         5.9953   -2.9363    1.6910 C.3       1 <0>         0.0000
     13 C13         2.4245   -2.8999    0.3599 C.3       1 <0>         0.0000
     14 C14         5.0884   -3.5706    4.0452 C.3       1 <0>         0.0000
     15 C15         1.7114   -4.1488   -0.2382 C.3       1 <0>         0.0000
     16 N1          1.9549   -0.8333    1.5455 N.am      1 <0>         0.0000
     17 N2          3.6959   -3.2182    0.9688 N.am      1 <0>         0.0000
     18 N3          8.4808   -2.9296    1.5848 N.am      1 <0>         0.0000
     19 O1          9.3307   -1.9667    2.0928 O.3       1 <0>         0.0000
     20 O2          8.2549   -5.2224    1.2943 O.2       1 <0>         0.0000
     21 O3          4.7482   -1.1914    0.5542 O.2       1 <0>         0.0000
     22 O4          0.7950   -2.7447    2.1522 O.2       1 <0>         0.0000
     23 H1          9.8596   -4.3672    2.1794 H         1 <0>         0.0000
     24 H2          6.4596   -5.2491    4.2175 H         1 <0>         0.0000
     25 H3          5.3256   -5.3883    2.8641 H         1 <0>         0.0000
     26 H4          4.7804   -5.6761    4.5273 H         1 <0>         0.0000
     27 H5          6.1838   -3.2884    5.9121 H         1 <0>         0.0000
     28 H6          4.8754   -2.1200    5.6540 H         1 <0>         0.0000
     29 H7          4.4947   -3.7797    6.1290 H         1 <0>         0.0000
     30 H8          2.8872   -4.1345   -2.0879 H         1 <0>         0.0000
     31 H9          2.1738   -5.7124   -1.7140 H         1 <0>         0.0000
     32 H10         3.5794   -5.1449   -0.8119 H         1 <0>         0.0000
     33 H11         0.7565   -4.7621    1.6349 H         1 <0>         0.0000
     34 H12         2.3282   -5.5113    1.3711 H         1 <0>         0.0000
     35 H13         0.9158   -6.0685    0.4541 H         1 <0>         0.0000
     36 H14        -0.3050   -3.3025   -0.2384 H         1 <0>         0.0000
     37 H15        -0.1179   -4.6740   -1.3329 H         1 <0>         0.0000
     38 H16         0.5457   -3.0900   -1.7676 H         1 <0>         0.0000
     39 H17         0.4402    0.4941    2.0989 H         1 <0>         0.0000
     40 H18         2.0331    0.8259    2.8147 H         1 <0>         0.0000
     41 H19         1.0580   -0.5350    3.4100 H         1 <0>         0.0000
     42 H20         7.0493   -2.7891    3.5757 H         1 <0>         0.0000
     43 H21         5.7503   -1.6191    3.3985 H         1 <0>         0.0000
     44 H22         7.2745   -2.6901   -0.0546 H         1 <0>         0.0000
     45 H23         7.3301   -1.3226    1.0647 H         1 <0>         0.0000
     46 H24         5.9704   -4.0198    1.5260 H         1 <0>         0.0000
     47 H25         2.6549   -2.1876   -0.4426 H         1 <0>         0.0000
     48 H26         4.0519   -3.4254    3.7195 H         1 <0>         0.0000
     49 H27         2.6527   -0.4488    0.9157 H         1 <0>         0.0000
     50 H28         3.8157   -4.1378    1.3829 H         1 <0>         0.0000
@<TRIPOS>BOND
     1    1   18 am
     2    1   20 2
     3    2   12 1
     4    2   17 am
     5    2   21 2
     6    3   13 1
     7    3   16 am
     8    3   22 2
     9    4   14 1
    10    5   14 1
    11    6   15 1
    12    7   15 1
    13    8   15 1
    14    9   16 1
    15   10   12 1
    16   10   14 1
    17   11   12 1
    18   11   18 1
    19   13   15 1
    20   13   17 1
    21   18   19 1
    22    1   23 1
    23    4   24 1
    24    4   25 1
    25    4   26 1
    26    5   27 1
    27    5   28 1
    28    5   29 1
    29    6   30 1
    30    6   31 1
    31    6   32 1
    32    7   33 1
    33    7   34 1
    34    7   35 1
    35    8   36 1
    36    8   37 1
    37    8   38 1
    38    9   39 1
    39    9   40 1
    40    9   41 1
    41   10   42 1
    42   10   43 1
    43   11   44 1
    44   11   45 1
    45   12   46 1
    46   13   47 1
    47   14   48 1
    48   16   49 1
    49   17   50 1
@<TRIPOS>MOLECULE
LIGAND
   50    49     0     0     0
SMALL
NO_CHARGES

@<TRIPOS>ATOM
      1 C1          6.0958   -6.0780    1.3219 C.2       1 <0>         0.0000
      2 C2          4.7609   -2.3304    1.0158 C.2       1 <0>         0.0000
      3 C3          1.6238   -2.1763    1.4428 C.2       1 <0>         0.0000
      4 C4          6.2068   -2.5045    4.7682 C.3       1 <0>         0.0000
      5 C5          7.2536   -0.2835    4.2952 C.3       1 <0>         0.0000
      6 C6          2.6382   -4.8237   -1.2732 C.3       1 <0>         0.0000
      7 C7          1.4139   -5.1834    0.8654 C.3       1 <0>         0.0000
      8 C8          0.3871   -3.7862   -0.9377 C.3       1 <0>         0.0000
      9 C9          0.7109    0.0436    2.0502 C.3       1 <0>         0.0000
     10 C10         6.8665   -1.8668    2.3816 C.3       1 <0>         0.0000
     11 C11         6.8055   -3.7427    0.6616 C.3       1 <0>         0.0000
     12 C12         5.9953   -2.9363    1.6910 C.3       1 <0>         0.0000
     13 C13         2.4245   -2.8999    0.3599 C.3       1 <0>         0.0000
     14 C14         6.3308   -1.3748    3.7443 C.3       1 <0>         0.0000
     15 C15         1.7114   -4.1488   -0.2382 C.3       1 <0>         0.0000
     16 N1          1.4216   -0.8351    1.1525 N.am      1 <0>         0.0000
     17 N2          3.6959   -3.2182    0.9688 N.am      1 <0>         0.0000
     18 N3          6.2725   -5.0565    0.4193 N.am      1 <0>         0.0000
     19 O1          5.9007   -5.2942   -0.8894 O.3       1 <0>         0.0000
     20 O2          6.3684   -6.0453    2.5182 O.2       1 <0>         0.0000
     21 O3          4.7482   -1.1914    0.5542 O.2       1 <0>         0.0000
     22 O4          1.2284   -2.7340    2.4655 O.2       1 <0>         0.0000
     23 H1          5.6645   -6.9913    0.8751 H         1 <0>         0.0000
     24 H2          7.1779   -2.9820    4.9387 H         1 <0>         0.0000
     25 H3          5.5078   -3.2753    4.4268 H         1 <0>         0.0000
     26 H4          5.8592   -2.1311    5.7358 H         1 <0>         0.0000
     27 H5          8.2679   -0.6642    4.4570 H         1 <0>         0.0000
     28 H6          7.3145    0.5617    3.6015 H         1 <0>         0.0000
     29 H7          6.8785    0.0981    5.2508 H         1 <0>         0.0000
     30 H8          2.8872   -4.1345   -2.0879 H         1 <0>         0.0000
     31 H9          2.1738   -5.7124   -1.7140 H         1 <0>         0.0000
     32 H10         3.5794   -5.1449   -0.8119 H         1 <0>         0.0000
     33 H11         0.7565   -4.7621    1.6349 H         1 <0>         0.0000
     34 H12         2.3282   -5.5113    1.3711 H         1 <0>         0.0000
     35 H13         0.9158   -6.0685    0.4541 H         1 <0>         0.0000
     36 H14        -0.3050   -3.3025   -0.2384 H         1 <0>         0.0000
     37 H15        -0.1179   -4.6740   -1.3329 H         1 <0>         0.0000
     38 H16         0.5457   -3.0900   -1.7676 H         1 <0>         0.0000
     39 H17        -0.3565    0.0379    1.8148 H         1 <0>         0.0000
     40 H18         1.0868    1.0659    1.9547 H         1 <0>         0.0000
     41 H19         0.8449   -0.2838    3.0846 H         1 <0>         0.0000
     42 H20         7.8774   -2.2707    2.5271 H         1 <0>         0.0000
     43 H21         6.9742   -0.9994    1.7170 H         1 <0>         0.0000
     44 H22         6.8299   -3.2204   -0.3007 H         1 <0>         0.0000
     45 H23         7.8405   -3.8774    0.9927 H         1 <0>         0.0000
     46 H24         5.6479   -3.6501    2.4472 H         1 <0>         0.0000
     47 H25         2.6549   -2.1876   -0.4426 H         1 <0>         0.0000
     48 H26         5.3389   -0.9289    3.6068 H         1 <0>         0.0000
     49 H27         1.7849   -0.4599    0.2815 H         1 <0>         0.0000
     50 H28         3.8157   -4.1378    1.3829 H         1 <0>         0.0000
@<TRIPOS>BOND
     1    1   18 am
     2    1   20 2
     3    2   12 1
     4    2   17 am
     5    2   21 2
     6    3   13 1
     7    3   16 am
     8    3   22 2
     9    4   14 1
    10    5   14 1
    11    6   15 1
    12    7   15 1
    13    8   15 1
    14    9   16 1
    15   10   12 1
    16   10   14 1
    17   11   12 1
    18   11   18 1
    19   13   15 1
    20   13   17 1
    21   18   19 1
    22    1   23 1
    23    4   24 1
    24    4   25 1
    25    4   26 1
    26    5   27 1
    27    5   28 1
    28    5   29 1
    29    6   30 1
    30    6   31 1
    31    6   32 1
    32    7   33 1
    33    7   34 1
    34    7   35 1
    35    8   36 1
    36    8   37 1
    37    8   38 1
    38    9   39 1
    39    9   40 1
    40    9   41 1
    41   10   42 1
    42   10   43 1
    43   11   44 1
    44   11   45 1
    45   12   46 1
    46   13   47 1
    47   14   48 1
    48   16   49 1
    49   17   50 1
@<TRIPOS>MOLECULE
LIGAND
   50    49     0     0     0
SMALL
NO_CHARGES

@<TRIPOS>ATOM
      1 C1          9.3378   -3.1321    2.2703 C.2       1 <0>         0.0000
      2 C2          4.7609   -2.3304    1.0158 C.2       1 <0>         0.0000
      3 C3          1.4114   -2.9063    1.5049 C.2       1 <0>         0.0000
      4 C4          5.4286   -5.0551    3.9022 C.3       1 <0>         0.0000
      5 C5          5.1681   -3.1669    5.5205 C.3       1 <0>         0.0000
      6 C6          1.9716   -3.0346   -2.1281 C.3       1 <0>         0.0000
      7 C7          3.1629   -4.9155   -1.0124 C.3       1 <0>         0.0000
      8 C8          0.7197   -4.5702   -0.6013 C.3       1 <0>         0.0000
      9 C9         -0.5781   -1.7107    2.3670 C.3       1 <0>         0.0000
     10 C10         6.0212   -2.6662    3.2096 C.3       1 <0>         0.0000
     11 C11         7.2695   -2.4142    1.0053 C.3       1 <0>         0.0000
     12 C12         5.9953   -2.9363    1.6910 C.3       1 <0>         0.0000
     13 C13         2.4245   -2.8999    0.3599 C.3       1 <0>         0.0000
     14 C14         5.0884   -3.5706    4.0452 C.3       1 <0>         0.0000
     15 C15         2.0646   -3.8508   -0.8201 C.3       1 <0>         0.0000
     16 N1          0.4604   -1.9038    1.3835 N.am      1 <0>         0.0000
     17 N2          3.6959   -3.2182    0.9688 N.am      1 <0>         0.0000
     18 N3          8.4249   -3.2358    1.2479 N.am      1 <0>         0.0000
     19 O1          8.6173   -4.2452    0.3251 O.3       1 <0>         0.0000
     20 O2          9.3248   -2.3015    3.1740 O.2       1 <0>         0.0000
     21 O3          4.7482   -1.1914    0.5542 O.2       1 <0>         0.0000
     22 O4          1.4623   -3.7076    2.4368 O.2       1 <0>         0.0000
     23 H1         10.1373   -3.8927    2.2264 H         1 <0>         0.0000
     24 H2          6.4596   -5.2491    4.2175 H         1 <0>         0.0000
     25 H3          5.3256   -5.3883    2.8641 H         1 <0>         0.0000
     26 H4          4.7804   -5.6761    4.5273 H         1 <0>         0.0000
     27 H5          6.1838   -3.2884    5.9121 H         1 <0>         0.0000
     28 H6          4.8754   -2.1200    5.6540 H         1 <0>         0.0000
     29 H7          4.4947   -3.7797    6.1290 H         1 <0>         0.0000
     30 H8          1.2033   -2.2569   -2.0537 H         1 <0>         0.0000
     31 H9          1.7252   -3.6703   -2.9855 H         1 <0>         0.0000
     32 H10         2.9231   -2.5396   -2.3546 H         1 <0>         0.0000
     33 H11         3.2779   -5.5312   -0.1127 H         1 <0>         0.0000
     34 H12         4.1381   -4.4603   -1.2147 H         1 <0>         0.0000
     35 H13         2.9214   -5.5874   -1.8436 H         1 <0>         0.0000
     36 H14         0.7392   -5.1646    0.3197 H         1 <0>         0.0000
     37 H15         0.4883   -5.2543   -1.4246 H         1 <0>         0.0000
     38 H16        -0.1084   -3.8600   -0.5090 H         1 <0>         0.0000
     39 H17        -1.4589   -2.3023    2.1044 H         1 <0>         0.0000
     40 H18        -0.8634   -0.6562    2.4133 H         1 <0>         0.0000
     41 H19        -0.2264   -2.0222    3.3542 H         1 <0>         0.0000
     42 H20         7.0493   -2.7891    3.5757 H         1 <0>         0.0000
     43 H21         5.7503   -1.6191    3.3985 H         1 <0>         0.0000
     44 H22         7.1283   -2.3661   -0.0797 H         1 <0>         0.0000
     45 H23         7.5195   -1.4064    1.3527 H         1 <0>         0.0000
     46 H24         5.9704   -4.0198    1.5260 H         1 <0>         0.0000
     47 H25         2.5279   -1.8729   -0.0129 H         1 <0>         0.0000
     48 H26         4.0519   -3.4254    3.7195 H         1 <0>         0.0000
     49 H27         0.4960   -1.2867    0.5777 H         1 <0>         0.0000
     50 H28         3.8157   -4.1378    1.3829 H         1 <0>         0.0000
@<TRIPOS>BOND
     1    1   18 am
     2    1   20 2
     3    2   12 1
     4    2   17 am
     5    2   21 2
     6    3   13 1
     7    3   16 am
     8    3   22 2
     9    4   14 1
    10    5   14 1
    11    6   15 1
    12    7   15 1
    13    8   15 1
    14    9   16 1
    15   10   12 1
    16   10   14 1
    17   11   12 1
    18   11   18 1
    19   13   15 1
    20   13   17 1
    21   18   19 1
    22    1   23 1
    23    4   24 1
    24    4   25 1
    25    4   26 1
    26    5   27 1
    27    5   28 1
    28    5   29 1
    29    6   30 1
    30    6   31 1
    31    6   32 1
    32    7   33 1
    33    7   34 1
    34    7   35 1
    35    8   36 1
    36    8   37 1
    37    8   38 1
    38    9   39 1
    39    9   40 1
    40    9   41 1
    41   10   42 1
    42   10   43 1
    43   11   44 1
    44   11   45 1
    45   12   46 1
    46   13   47 1
    47   14   48 1
    48   16   49 1
    49   17   50 1
@<TRIPOS>MOLECULE
LIGAND
   50    49     0     0     0
SMALL
NO_CHARGES

@<TRIPOS>ATOM
      1 C1          7.0308   -1.2119   -1.0477 C.2       1 <0>         0.0000
      2 C2          4.7609   -2.3304    1.0158 C.2       1 <0>         0.0000
      3 C3          1.4114   -2.9063    1.5049 C.2       1 <0>         0.0000
      4 C4          4.8998   -3.3220    4.5808 C.3       1 <0>         0.0000
      5 C5          5.9126   -1.1117    5.1647 C.3       1 <0>         0.0000
      6 C6          3.1857   -3.8003   -1.8813 C.3       1 <0>         0.0000
      7 C7          1.9543   -5.3076   -0.3278 C.3       1 <0>         0.0000
      8 C8          0.7370   -3.4626   -1.4991 C.3       1 <0>         0.0000
      9 C9          1.0123   -1.9958    3.7725 C.3       1 <0>         0.0000
     10 C10         6.4405   -2.1272    2.9267 C.3       1 <0>         0.0000
     11 C11         7.1342   -3.0688    0.6654 C.3       1 <0>         0.0000
     12 C12         5.9953   -2.9363    1.6910 C.3       1 <0>         0.0000
     13 C13         2.4245   -2.8999    0.3599 C.3       1 <0>         0.0000
     14 C14         5.3645   -1.9750    4.0244 C.3       1 <0>         0.0000
     15 C15         2.0646   -3.8508   -0.8201 C.3       1 <0>         0.0000
     16 N1          1.8071   -2.1159    2.5738 N.am      1 <0>         0.0000
     17 N2          3.6959   -3.2182    0.9688 N.am      1 <0>         0.0000
     18 N3          7.5271   -1.8131    0.0844 N.am      1 <0>         0.0000
     19 O1          8.5280   -1.1509    0.7681 O.3       1 <0>         0.0000
     20 O2          6.1462   -1.6525   -1.7755 O.2       1 <0>         0.0000
     21 O3          4.7482   -1.1914    0.5542 O.2       1 <0>         0.0000
     22 O4          0.3728   -3.5647    1.4736 O.2       1 <0>         0.0000
     23 H1          7.5085   -0.2431   -1.2779 H         1 <0>         0.0000
     24 H2          5.7423   -3.8772    5.0075 H         1 <0>         0.0000
     25 H3          4.4501   -3.9417    3.7978 H         1 <0>         0.0000
     26 H4          4.1642   -3.1925    5.3800 H         1 <0>         0.0000
     27 H5          6.7922   -1.5734    5.6261 H         1 <0>         0.0000
     28 H6          6.2016   -0.1209    4.7985 H         1 <0>         0.0000
     29 H7          5.1564   -0.9697    5.9440 H         1 <0>         0.0000
     30 H8          3.3133   -2.7845   -2.2720 H         1 <0>         0.0000
     31 H9          2.9723   -4.4622   -2.7277 H         1 <0>         0.0000
     32 H10         4.1465   -4.1154   -1.4578 H         1 <0>         0.0000
     33 H11         1.1705   -5.4095    0.4319 H         1 <0>         0.0000
     34 H12         2.8879   -5.6535    0.1281 H         1 <0>         0.0000
     35 H13         1.7055   -5.9859   -1.1517 H         1 <0>         0.0000
     36 H14        -0.0909   -3.4848   -0.7807 H         1 <0>         0.0000
     37 H15         0.4812   -4.1517   -2.3109 H         1 <0>         0.0000
     38 H16         0.7762   -2.4505   -1.9146 H         1 <0>         0.0000
     39 H17         0.3100   -1.1637    3.6759 H         1 <0>         0.0000
     40 H18         1.6568   -1.8137    4.6368 H         1 <0>         0.0000
     41 H19         0.4467   -2.9155    3.9448 H         1 <0>         0.0000
     42 H20         7.3251   -2.6069    3.3666 H         1 <0>         0.0000
     43 H21         6.7588   -1.1249    2.6110 H         1 <0>         0.0000
     44 H22         8.0241   -3.5011    1.1351 H         1 <0>         0.0000
     45 H23         6.8444   -3.7236   -0.1630 H         1 <0>         0.0000
     46 H24         5.7385   -3.9535    2.0094 H         1 <0>         0.0000
     47 H25         2.5279   -1.8729   -0.0129 H         1 <0>         0.0000
     48 H26         4.4913   -1.4577    3.6101 H         1 <0>         0.0000
     49 H27         2.6832   -1.6060    2.5111 H         1 <0>         0.0000
     50 H28         3.8157   -4.1378    1.3829 H         1 <0>         0.0000
@<TRIPOS>BOND
     1    1   18 am
     2    1   20 2
     3    2   12 1
     4    2   17 am
     5    2   21 2
     6    3   13 1
     7    3   16 am
     8    3   22 2
     9    4   14 1
    10    5   14 1
    11    6   15 1
    12    7   15 1
    13    8   15 1
    14    9   16 1
    15   10   12 1
    16   10   14 1
    17   11   12 1
    18   11   18 1
    19   13   15 1
    20   13   17 1
    21   18   19 1
    22    1   23 1
    23    4   24 1
    24    4   25 1
    25    4   26 1
    26    5   27 1
    27    5   28 1
    28    5   29 1
    29    6   30 1
    30    6   31 1
    31    6   32 1
    32    7   33 1
    33    7   34 1
    34    7   35 1
    35    8   36 1
    36    8   37 1
    37    8   38 1
    38    9   39 1
    39    9   40 1
    40    9   41 1
    41   10   42 1
    42   10   43 1
    43   11   44 1
    44   11   45 1
    45   12   46 1
    46   13   47 1
    47   14   48 1
    48   16   49 1
    49   17   50 1
@<TRIPOS>MOLECULE
LIGAND
   50    49     0     0     0
SMALL
NO_CHARGES

@<TRIPOS>ATOM
      1 C1          6.0453   -4.6826   -0.9481 C.2       1 <0>         0.0000
      2 C2          4.7609   -2.3304    1.0158 C.2       1 <0>         0.0000
      3 C3          1.6238   -2.1763    1.4428 C.2       1 <0>         0.0000
      4 C4          4.8998   -3.3220    4.5808 C.3       1 <0>         0.0000
      5 C5          5.9126   -1.1117    5.1647 C.3       1 <0>         0.0000
      6 C6          2.1972   -4.3736   -1.6870 C.3       1 <0>         0.0000
      7 C7          2.0616   -5.4127    0.5721 C.3       1 <0>         0.0000
      8 C8          0.1787   -3.9917   -0.2602 C.3       1 <0>         0.0000
      9 C9          0.7109    0.0436    2.0502 C.3       1 <0>         0.0000
     10 C10         6.4405   -2.1272    2.9267 C.3       1 <0>         0.0000
     11 C11         7.1342   -3.0688    0.6654 C.3       1 <0>         0.0000
     12 C12         5.9953   -2.9363    1.6910 C.3       1 <0>         0.0000
     13 C13         2.4245   -2.8999    0.3599 C.3       1 <0>         0.0000
     14 C14         5.3645   -1.9750    4.0244 C.3       1 <0>         0.0000
     15 C15         1.7114   -4.1488   -0.2382 C.3       1 <0>         0.0000
     16 N1          1.4216   -0.8351    1.1525 N.am      1 <0>         0.0000
     17 N2          3.6959   -3.2182    0.9688 N.am      1 <0>         0.0000
     18 N3          6.6876   -3.5101   -0.6286 N.am      1 <0>         0.0000
     19 O1          6.9490   -2.6283   -1.6591 O.3       1 <0>         0.0000
     20 O2          5.7345   -5.5766   -0.1665 O.2       1 <0>         0.0000
     21 O3          4.7482   -1.1914    0.5542 O.2       1 <0>         0.0000
     22 O4          1.2284   -2.7340    2.4655 O.2       1 <0>         0.0000
     23 H1          5.8100   -4.7777   -2.0229 H         1 <0>         0.0000
     24 H2          5.7423   -3.8772    5.0075 H         1 <0>         0.0000
     25 H3          4.4501   -3.9417    3.7978 H         1 <0>         0.0000
     26 H4          4.1642   -3.1925    5.3800 H         1 <0>         0.0000
     27 H5          6.7922   -1.5734    5.6261 H         1 <0>         0.0000
     28 H6          6.2016   -0.1209    4.7985 H         1 <0>         0.0000
     29 H7          5.1564   -0.9697    5.9440 H         1 <0>         0.0000
     30 H8          1.9755   -3.5045   -2.3165 H         1 <0>         0.0000
     31 H9          1.7217   -5.2491   -2.1424 H         1 <0>         0.0000
     32 H10         3.2803   -4.5391   -1.7204 H         1 <0>         0.0000
     33 H11         1.7403   -5.3146    1.6156 H         1 <0>         0.0000
     34 H12         3.1406   -5.5993    0.5864 H         1 <0>         0.0000
     35 H13         1.5681   -6.2984    0.1566 H         1 <0>         0.0000
     36 H14        -0.2125   -3.8293    0.7511 H         1 <0>         0.0000
     37 H15        -0.3138   -4.8846   -0.6595 H         1 <0>         0.0000
     38 H16        -0.1312   -3.1347   -0.8670 H         1 <0>         0.0000
     39 H17        -0.3565    0.0379    1.8148 H         1 <0>         0.0000
     40 H18         1.0868    1.0659    1.9547 H         1 <0>         0.0000
     41 H19         0.8449   -0.2838    3.0846 H         1 <0>         0.0000
     42 H20         7.3251   -2.6069    3.3666 H         1 <0>         0.0000
     43 H21         6.7588   -1.1249    2.6110 H         1 <0>         0.0000
     44 H22         7.6361   -2.1057    0.5239 H         1 <0>         0.0000
     45 H23         7.8866   -3.7891    1.0029 H         1 <0>         0.0000
     46 H24         5.7385   -3.9535    2.0094 H         1 <0>         0.0000
     47 H25         2.6549   -2.1876   -0.4426 H         1 <0>         0.0000
     48 H26         4.4913   -1.4577    3.6101 H         1 <0>         0.0000
     49 H27         1.7849   -0.4599    0.2815 H         1 <0>         0.0000
     50 H28         3.8157   -4.1378    1.3829 H         1 <0>         0.0000
@<TRIPOS>BOND
     1    1   18 am
     2    1   20 2
     3    2   12 1
     4    2   17 am
     5    2   21 2
     6    3   13 1
     7    3   16 am
     8    3   22 2
     9    4   14 1
    10    5   14 1
    11    6   15 1
    12    7   15 1
    13    8   15 1
    14    9   16 1
    15   10   12 1
    16   10   14 1
    17   11   12 1
    18   11   18 1
    19   13   15 1
    20   13   17 1
    21   18   19 1
    22    1   23 1
    23    4   24 1
    24    4   25 1
    25    4   26 1
    26    5   27 1
    27    5   28 1
    28    5   29 1
    29    6   30 1
    30    6   31 1
    31    6   32 1
    32    7   33 1
    33    7   34 1
    34    7   35 1
    35    8   36 1
    36    8   37 1
    37    8   38 1
    38    9   39 1
    39    9   40 1
    40    9   41 1
    41   10   42 1
    42   10   43 1
    43   11   44 1
    44   11   45 1
    45   12   46 1
    46   13   47 1
    47   14   48 1
    48   16   49 1
    49   17   50 1
@<TRIPOS>MOLECULE
LIGAND
   50    49     0     0     0
SMALL
NO_CHARGES

@<TRIPOS>ATOM
      1 C1          9.4872   -3.7737    1.2654 C.2       1 <0>         0.0000
      2 C2          4.7609   -2.3304    1.0158 C.2       1 <0>         0.0000
      3 C3          1.4114   -2.9063    1.5049 C.2       1 <0>         0.0000
      4 C4          4.8998   -3.3220    4.5808 C.3       1 <0>         0.0000
      5 C5          5.9126   -1.1117    5.1647 C.3       1 <0>         0.0000
      6 C6          3.1857   -3.8003   -1.8813 C.3       1 <0>         0.0000
      7 C7          1.9543   -5.3076   -0.3278 C.3       1 <0>         0.0000
      8 C8          0.7370   -3.4626   -1.4991 C.3       1 <0>         0.0000
      9 C9          0.8046   -4.1182    3.5770 C.3       1 <0>         0.0000
     10 C10         6.4405   -2.1272    2.9267 C.3       1 <0>         0.0000
     11 C11         7.1342   -3.0688    0.6654 C.3       1 <0>         0.0000
     12 C12         5.9953   -2.9363    1.6910 C.3       1 <0>         0.0000
     13 C13         2.4245   -2.8999    0.3599 C.3       1 <0>         0.0000
     14 C14         5.3645   -1.9750    4.0244 C.3       1 <0>         0.0000
     15 C15         2.0646   -3.8508   -0.8201 C.3       1 <0>         0.0000
     16 N1          1.6532   -3.9132    2.4277 N.am      1 <0>         0.0000
     17 N2          3.6959   -3.2182    0.9688 N.am      1 <0>         0.0000
     18 N3          8.1489   -4.0093    1.0586 N.am      1 <0>         0.0000
     19 O1          7.6955   -5.3007    1.2443 O.3       1 <0>         0.0000
     20 O2         10.3271   -4.6032    1.6016 O.2       1 <0>         0.0000
     21 O3          4.7482   -1.1914    0.5542 O.2       1 <0>         0.0000
     22 O4          0.4758   -2.1105    1.5728 O.2       1 <0>         0.0000
     23 H1          9.7805   -2.7220    1.0994 H         1 <0>         0.0000
     24 H2          5.7423   -3.8772    5.0075 H         1 <0>         0.0000
     25 H3          4.4501   -3.9417    3.7978 H         1 <0>         0.0000
     26 H4          4.1642   -3.1925    5.3800 H         1 <0>         0.0000
     27 H5          6.7922   -1.5734    5.6261 H         1 <0>         0.0000
     28 H6          6.2016   -0.1209    4.7985 H         1 <0>         0.0000
     29 H7          5.1564   -0.9697    5.9440 H         1 <0>         0.0000
     30 H8          3.3133   -2.7845   -2.2720 H         1 <0>         0.0000
     31 H9          2.9723   -4.4622   -2.7277 H         1 <0>         0.0000
     32 H10         4.1465   -4.1154   -1.4578 H         1 <0>         0.0000
     33 H11         1.1705   -5.4095    0.4319 H         1 <0>         0.0000
     34 H12         2.8879   -5.6535    0.1281 H         1 <0>         0.0000
     35 H13         1.7055   -5.9859   -1.1517 H         1 <0>         0.0000
     36 H14        -0.0909   -3.4848   -0.7807 H         1 <0>         0.0000
     37 H15         0.4812   -4.1517   -2.3109 H         1 <0>         0.0000
     38 H16         0.7762   -2.4505   -1.9146 H         1 <0>         0.0000
     39 H17         1.1692   -3.5298    4.4230 H         1 <0>         0.0000
     40 H18         0.7992   -5.1745    3.8593 H         1 <0>         0.0000
     41 H19        -0.2198   -3.8109    3.3501 H         1 <0>         0.0000
     42 H20         7.3251   -2.6069    3.3666 H         1 <0>         0.0000
     43 H21         6.7588   -1.1249    2.6110 H         1 <0>         0.0000
     44 H22         6.7419   -3.4007   -0.3017 H         1 <0>         0.0000
     45 H23         7.6368   -2.1087    0.5083 H         1 <0>         0.0000
     46 H24         5.7385   -3.9535    2.0094 H         1 <0>         0.0000
     47 H25         2.5279   -1.8729   -0.0129 H         1 <0>         0.0000
     48 H26         4.4913   -1.4577    3.6101 H         1 <0>         0.0000
     49 H27         2.4520   -4.5251    2.2903 H         1 <0>         0.0000
     50 H28         3.8157   -4.1378    1.3829 H         1 <0>         0.0000
@<TRIPOS>BOND
     1    1   18 am
     2    1   20 2
     3    2   12 1
     4    2   17 am
     5    2   21 2
     6    3   13 1
     7    3   16 am
     8    3   22 2
     9    4   14 1
    10    5   14 1
    11    6   15 1
    12    7   15 1
    13    8   15 1
    14    9   16 1
    15   10   12 1
    16   10   14 1
    17   11   12 1
    18   11   18 1
    19   13   15 1
    20   13   17 1
    21   18   19 1
    22    1   23 1
    23    4   24 1
    24    4   25 1
    25    4   26 1
    26    5   27 1
    27    5   28 1
    28    5   29 1
    29    6   30 1
    30    6   31 1
    31    6   32 1
    32    7   33 1
    33    7   34 1
    34    7   35 1
    35    8   36 1
    36    8   37 1
    37    8   38 1
    38    9   39 1
    39    9   40 1
    40    9   41 1
    41   10   42 1
    42   10   43 1
    43   11   44 1
    44   11   45 1
    45   12   46 1
    46   13   47 1
    47   14   48 1
    48   16   49 1
    49   17   50 1
@<TRIPOS>MOLECULE
LIGAND
   50    49     0     0     0
SMALL
NO_CHARGES

@<TRIPOS>ATOM
      1 C1          4.1712   -1.7701    4.5874 C.2       1 <0>         0.0000
      2 C2          4.7609   -2.3304    1.0158 C.2       1 <0>         0.0000
      3 C3          1.3743   -3.6105    1.2141 C.2       1 <0>         0.0000
      4 C4          8.5547   -3.1178   -0.0742 C.3       1 <0>         0.0000
      5 C5          7.6782   -5.2829   -0.9666 C.3       1 <0>         0.0000
      6 C6          2.9144   -2.0789   -1.9851 C.3       1 <0>         0.0000
      7 C7          3.2618   -4.4861   -1.4495 C.3       1 <0>         0.0000
      8 C8          0.9399   -3.5730   -1.6309 C.3       1 <0>         0.0000
      9 C9         -0.4638   -3.1822    2.8167 C.3       1 <0>         0.0000
     10 C10         6.4903   -4.2069    0.9698 C.3       1 <0>         0.0000
     11 C11         5.6912   -3.2135    3.1734 C.3       1 <0>         0.0000
     12 C12         5.9953   -2.9363    1.6910 C.3       1 <0>         0.0000
     13 C13         2.4245   -2.8999    0.3599 C.3       1 <0>         0.0000
     14 C14         7.2936   -3.9469   -0.3237 C.3       1 <0>         0.0000
     15 C15         2.3718   -3.2623   -1.1540 C.3       1 <0>         0.0000
     16 N1          0.5772   -2.7269    1.9268 N.am      1 <0>         0.0000
     17 N2          3.6959   -3.2182    0.9688 N.am      1 <0>         0.0000
     18 N3          5.3407   -2.0316    3.9142 N.am      1 <0>         0.0000
     19 O1          6.3174   -1.0552    3.9355 O.3       1 <0>         0.0000
     20 O2          3.9055   -0.7469    5.2111 O.2       1 <0>         0.0000
     21 O3          4.7482   -1.1914    0.5542 O.2       1 <0>         0.0000
     22 O4          1.2756   -4.8354    1.2685 O.2       1 <0>         0.0000
     23 H1          3.4356   -2.5918    4.5288 H         1 <0>         0.0000
     24 H2          9.2158   -3.6219    0.6392 H         1 <0>         0.0000
     25 H3          8.3079   -2.1320    0.3339 H         1 <0>         0.0000
     26 H4          9.1275   -2.9738   -0.9949 H         1 <0>         0.0000
     27 H5          8.3104   -5.8785   -0.2992 H         1 <0>         0.0000
     28 H6          6.7859   -5.8716   -1.2045 H         1 <0>         0.0000
     29 H7          8.2280   -5.1221   -1.9000 H         1 <0>         0.0000
     30 H8          2.3199   -1.1739   -1.8172 H         1 <0>         0.0000
     31 H9          2.8994   -2.2973   -3.0585 H         1 <0>         0.0000
     32 H10         3.9518   -1.8484   -1.7158 H         1 <0>         0.0000
     33 H11         2.9258   -5.3642   -0.8858 H         1 <0>         0.0000
     34 H12         4.3049   -4.3063   -1.1689 H         1 <0>         0.0000
     35 H13         3.2353   -4.7468   -2.5135 H         1 <0>         0.0000
     36 H14         0.5126   -4.4101   -1.0664 H         1 <0>         0.0000
     37 H15         0.9176   -3.8503   -2.6901 H         1 <0>         0.0000
     38 H16         0.2727   -2.7163   -1.4916 H         1 <0>         0.0000
     39 H17        -1.4067   -3.2811    2.2725 H         1 <0>         0.0000
     40 H18        -0.6020   -2.4684    3.6333 H         1 <0>         0.0000
     41 H19        -0.1993   -4.1542    3.2419 H         1 <0>         0.0000
     42 H20         7.1160   -4.7876    1.6607 H         1 <0>         0.0000
     43 H21         5.6310   -4.8442    0.7228 H         1 <0>         0.0000
     44 H22         4.8556   -3.9151    3.2682 H         1 <0>         0.0000
     45 H23         6.5563   -3.6574    3.6769 H         1 <0>         0.0000
     46 H24         6.7931   -2.1847    1.6686 H         1 <0>         0.0000
     47 H25         2.3043   -1.8161    0.4837 H         1 <0>         0.0000
     48 H26         6.6656   -3.4052   -1.0405 H         1 <0>         0.0000
     49 H27         0.7309   -1.7288    1.8190 H         1 <0>         0.0000
     50 H28         3.8157   -4.1378    1.3829 H         1 <0>         0.0000
@<TRIPOS>BOND
     1    1   18 am
     2    1   20 2
     3    2   12 1
     4    2   17 am
     5    2   21 2
     6    3   13 1
     7    3   16 am
     8    3   22 2
     9    4   14 1
    10    5   14 1
    11    6   15 1
    12    7   15 1
    13    8   15 1
    14    9   16 1
    15   10   12 1
    16   10   14 1
    17   11   12 1
    18   11   18 1
    19   13   15 1
    20   13   17 1
    21   18   19 1
    22    1   23 1
    23    4   24 1
    24    4   25 1
    25    4   26 1
    26    5   27 1
    27    5   28 1
    28    5   29 1
    29    6   30 1
    30    6   31 1
    31    6   32 1
    32    7   33 1
    33    7   34 1
    34    7   35 1
    35    8   36 1
    36    8   37 1
    37    8   38 1
    38    9   39 1
    39    9   40 1
    40    9   41 1
    41   10   42 1
    42   10   43 1
    43   11   44 1
    44   11   45 1
    45   12   46 1
    46   13   47 1
    47   14   48 1
    48   16   49 1
    49   17   50 1
@<TRIPOS>MOLECULE
LIGAND
   50    49     0     0     0
SMALL
NO_CHARGES

@<TRIPOS>ATOM
      1 C1          7.5576   -2.3672    4.6544 C.2       1 <0>         0.0000
      2 C2          4.7609   -2.3304    1.0158 C.2       1 <0>         0.0000
      3 C3          1.6238   -2.1763    1.4428 C.2       1 <0>         0.0000
      4 C4          7.2107   -3.0163   -1.1753 C.3       1 <0>         0.0000
      5 C5          6.8616   -5.4922   -1.1583 C.3       1 <0>         0.0000
      6 C6          2.6382   -4.8237   -1.2732 C.3       1 <0>         0.0000
      7 C7          1.4139   -5.1834    0.8654 C.3       1 <0>         0.0000
      8 C8          0.3871   -3.7862   -0.9377 C.3       1 <0>         0.0000
      9 C9          1.3383    0.0348    2.5199 C.3       1 <0>         0.0000
     10 C10         6.4903   -4.2069    0.9698 C.3       1 <0>         0.0000
     11 C11         5.6912   -3.2135    3.1734 C.3       1 <0>         0.0000
     12 C12         5.9953   -2.9363    1.6910 C.3       1 <0>         0.0000
     13 C13         2.4245   -2.8999    0.3599 C.3       1 <0>         0.0000
     14 C14         6.3914   -4.1580   -0.5710 C.3       1 <0>         0.0000
     15 C15         1.7114   -4.1488   -0.2382 C.3       1 <0>         0.0000
     16 N1          1.9549   -0.8333    1.5455 N.am      1 <0>         0.0000
     17 N2          3.6959   -3.2182    0.9688 N.am      1 <0>         0.0000
     18 N3          6.8729   -3.3510    3.9817 N.am      1 <0>         0.0000
     19 O1          7.3583   -4.6406    4.0766 O.3       1 <0>         0.0000
     20 O2          7.2727   -1.1736    4.6825 O.2       1 <0>         0.0000
     21 O3          4.7482   -1.1914    0.5542 O.2       1 <0>         0.0000
     22 O4          0.7950   -2.7447    2.1522 O.2       1 <0>         0.0000
     23 H1          8.4389   -2.7411    5.2052 H         1 <0>         0.0000
     24 H2          8.2684   -3.1133   -0.9070 H         1 <0>         0.0000
     25 H3          6.8602   -2.0427   -0.8170 H         1 <0>         0.0000
     26 H4          7.1560   -3.0193   -2.2678 H         1 <0>         0.0000
     27 H5          7.9069   -5.6943   -0.9006 H         1 <0>         0.0000
     28 H6          6.2523   -6.3201   -0.7806 H         1 <0>         0.0000
     29 H7          6.7764   -5.4889   -2.2501 H         1 <0>         0.0000
     30 H8          2.8872   -4.1345   -2.0879 H         1 <0>         0.0000
     31 H9          2.1738   -5.7124   -1.7140 H         1 <0>         0.0000
     32 H10         3.5794   -5.1449   -0.8119 H         1 <0>         0.0000
     33 H11         0.7565   -4.7621    1.6349 H         1 <0>         0.0000
     34 H12         2.3282   -5.5113    1.3711 H         1 <0>         0.0000
     35 H13         0.9158   -6.0685    0.4541 H         1 <0>         0.0000
     36 H14        -0.3050   -3.3025   -0.2384 H         1 <0>         0.0000
     37 H15        -0.1179   -4.6740   -1.3329 H         1 <0>         0.0000
     38 H16         0.5457   -3.0900   -1.7676 H         1 <0>         0.0000
     39 H17         0.4402    0.4941    2.0989 H         1 <0>         0.0000
     40 H18         2.0331    0.8259    2.8147 H         1 <0>         0.0000
     41 H19         1.0580   -0.5350    3.4100 H         1 <0>         0.0000
     42 H20         7.5367   -4.3898    1.2486 H         1 <0>         0.0000
     43 H21         5.9202   -5.0746    1.3271 H         1 <0>         0.0000
     44 H22         5.0986   -2.3982    3.6018 H         1 <0>         0.0000
     45 H23         5.1177   -4.1388    3.2917 H         1 <0>         0.0000
     46 H24         6.7931   -2.1847    1.6686 H         1 <0>         0.0000
     47 H25         2.6549   -2.1876   -0.4426 H         1 <0>         0.0000
     48 H26         5.3446   -4.0194   -0.8651 H         1 <0>         0.0000
     49 H27         2.6527   -0.4488    0.9157 H         1 <0>         0.0000
     50 H28         3.8157   -4.1378    1.3829 H         1 <0>         0.0000
@<TRIPOS>BOND
     1    1   18 am
     2    1   20 2
     3    2   12 1
     4    2   17 am
     5    2   21 2
     6    3   13 1
     7    3   16 am
     8    3   22 2
     9    4   14 1
    10    5   14 1
    11    6   15 1
    12    7   15 1
    13    8   15 1
    14    9   16 1
    15   10   12 1
    16   10   14 1
    17   11   12 1
    18   11   18 1
    19   13   15 1
    20   13   17 1
    21   18   19 1
    22    1   23 1
    23    4   24 1
    24    4   25 1
    25    4   26 1
    26    5   27 1
    27    5   28 1
    28    5   29 1
    29    6   30 1
    30    6   31 1
    31    6   32 1
    32    7   33 1
    33    7   34 1
    34    7   35 1
    35    8   36 1
    36    8   37 1
    37    8   38 1
    38    9   39 1
    39    9   40 1
    40    9   41 1
    41   10   42 1
    42   10   43 1
    43   11   44 1
    44   11   45 1
    45   12   46 1
    46   13   47 1
    47   14   48 1
    48   16   49 1
    49   17   50 1
@<TRIPOS>MOLECULE
LIGAND
   50    49     0     0     0
SMALL
NO_CHARGES

@<TRIPOS>ATOM
      1 C1          7.6891   -2.5737   -1.4831 C.2       1 <0>         0.0000
      2 C2          4.7609   -2.3304    1.0158 C.2       1 <0>         0.0000
      3 C3          1.3743   -3.6105    1.2141 C.2       1 <0>         0.0000
      4 C4          5.4286   -5.0551    3.9022 C.3       1 <0>         0.0000
      5 C5          5.1681   -3.1669    5.5205 C.3       1 <0>         0.0000
      6 C6          3.5112   -2.5312   -1.8976 C.3       1 <0>         0.0000
      7 C7          2.5798   -4.7765   -1.3563 C.3       1 <0>         0.0000
      8 C8          1.0336   -2.8618   -1.8044 C.3       1 <0>         0.0000
      9 C9          0.0942   -3.3985    3.3229 C.3       1 <0>         0.0000
     10 C10         6.0212   -2.6662    3.2096 C.3       1 <0>         0.0000
     11 C11         7.2695   -2.4142    1.0053 C.3       1 <0>         0.0000
     12 C12         5.9953   -2.9363    1.6910 C.3       1 <0>         0.0000
     13 C13         2.4245   -2.8999    0.3599 C.3       1 <0>         0.0000
     14 C14         5.0884   -3.5706    4.0452 C.3       1 <0>         0.0000
     15 C15         2.3718   -3.2623   -1.1540 C.3       1 <0>         0.0000
     16 N1          1.0472   -2.9007    2.3600 N.am      1 <0>         0.0000
     17 N2          3.6959   -3.2182    0.9688 N.am      1 <0>         0.0000
     18 N3          7.5808   -3.1022   -0.2189 N.am      1 <0>         0.0000
     19 O1          7.7921   -4.4599   -0.0781 O.3       1 <0>         0.0000
     20 O2          7.5355   -1.3961   -1.7935 O.2       1 <0>         0.0000
     21 O3          4.7482   -1.1914    0.5542 O.2       1 <0>         0.0000
     22 O4          0.8978   -4.7040    0.9134 O.2       1 <0>         0.0000
     23 H1          7.9398   -3.3233   -2.2544 H         1 <0>         0.0000
     24 H2          6.4596   -5.2491    4.2175 H         1 <0>         0.0000
     25 H3          5.3256   -5.3883    2.8641 H         1 <0>         0.0000
     26 H4          4.7804   -5.6761    4.5273 H         1 <0>         0.0000
     27 H5          6.1838   -3.2884    5.9121 H         1 <0>         0.0000
     28 H6          4.8754   -2.1200    5.6540 H         1 <0>         0.0000
     29 H7          4.4947   -3.7797    6.1290 H         1 <0>         0.0000
     30 H8          3.4182   -1.4447   -1.7906 H         1 <0>         0.0000
     31 H9          3.5120   -2.7653   -2.9677 H         1 <0>         0.0000
     32 H10         4.4918   -2.8203   -1.5020 H         1 <0>         0.0000
     33 H11         1.7979   -5.3538   -0.8491 H         1 <0>         0.0000
     34 H12         3.5395   -5.1121   -0.9494 H         1 <0>         0.0000
     35 H13         2.5489   -5.0416   -2.4191 H         1 <0>         0.0000
     36 H14         0.1926   -3.3589   -1.3070 H         1 <0>         0.0000
     37 H15         0.9978   -3.1431   -2.8622 H         1 <0>         0.0000
     38 H16         0.8573   -1.7835   -1.7352 H         1 <0>         0.0000
     39 H17        -0.9122   -3.0580    3.0659 H         1 <0>         0.0000
     40 H18         0.3436   -3.0358    4.3238 H         1 <0>         0.0000
     41 H19         0.1039   -4.4917    3.3338 H         1 <0>         0.0000
     42 H20         7.0493   -2.7891    3.5757 H         1 <0>         0.0000
     43 H21         5.7503   -1.6191    3.3985 H         1 <0>         0.0000
     44 H22         7.1657   -1.3514    0.7623 H         1 <0>         0.0000
     45 H23         8.1413   -2.5219    1.6590 H         1 <0>         0.0000
     46 H24         5.9704   -4.0198    1.5260 H         1 <0>         0.0000
     47 H25         2.3043   -1.8161    0.4837 H         1 <0>         0.0000
     48 H26         4.0519   -3.4254    3.7195 H         1 <0>         0.0000
     49 H27         1.4921   -2.0031    2.5267 H         1 <0>         0.0000
     50 H28         3.8157   -4.1378    1.3829 H         1 <0>         0.0000
@<TRIPOS>BOND
     1    1   18 am
     2    1   20 2
     3    2   12 1
     4    2   17 am
     5    2   21 2
     6    3   13 1
     7    3   16 am
     8    3   22 2
     9    4   14 1
    10    5   14 1
    11    6   15 1
    12    7   15 1
    13    8   15 1
    14    9   16 1
    15   10   12 1
    16   10   14 1
    17   11   12 1
    18   11   18 1
    19   13   15 1
    20   13   17 1
    21   18   19 1
    22    1   23 1
    23    4   24 1
    24    4   25 1
    25    4   26 1
    26    5   27 1
    27    5   28 1
    28    5   29 1
    29    6   30 1
    30    6   31 1
    31    6   32 1
    32    7   33 1
    33    7   34 1
    34    7   35 1
    35    8   36 1
    36    8   37 1
    37    8   38 1
    38    9   39 1
    39    9   40 1
    40    9   41 1
    41   10   42 1
    42   10   43 1
    43   11   44 1
    44   11   45 1
    45   12   46 1
    46   13   47 1
    47   14   48 1
    48   16   49 1
    49   17   50 1
@<TRIPOS>MOLECULE
LIGAND
   50    49     0     0     0
SMALL
NO_CHARGES

@<TRIPOS>ATOM
      1 C1          8.5105   -4.8536    1.8116 C.2       1 <0>         0.0000
      2 C2          4.7609   -2.3304    1.0158 C.2       1 <0>         0.0000
      3 C3          1.4114   -2.9063    1.5049 C.2       1 <0>         0.0000
      4 C4          4.8998   -3.3220    4.5808 C.3       1 <0>         0.0000
      5 C5          5.9126   -1.1117    5.1647 C.3       1 <0>         0.0000
      6 C6          3.1857   -3.8003   -1.8813 C.3       1 <0>         0.0000
      7 C7          1.9543   -5.3076   -0.3278 C.3       1 <0>         0.0000
      8 C8          0.7370   -3.4626   -1.4991 C.3       1 <0>         0.0000
      9 C9          1.0123   -1.9958    3.7725 C.3       1 <0>         0.0000
     10 C10         6.4405   -2.1272    2.9267 C.3       1 <0>         0.0000
     11 C11         7.1342   -3.0688    0.6654 C.3       1 <0>         0.0000
     12 C12         5.9953   -2.9363    1.6910 C.3       1 <0>         0.0000
     13 C13         2.4245   -2.8999    0.3599 C.3       1 <0>         0.0000
     14 C14         5.3645   -1.9750    4.0244 C.3       1 <0>         0.0000
     15 C15         2.0646   -3.8508   -0.8201 C.3       1 <0>         0.0000
     16 N1          1.8071   -2.1159    2.5738 N.am      1 <0>         0.0000
     17 N2          3.6959   -3.2182    0.9688 N.am      1 <0>         0.0000
     18 N3          8.3392   -3.6246    1.2202 N.am      1 <0>         0.0000
     19 O1          9.4449   -2.8013    1.1353 O.3       1 <0>         0.0000
     20 O2          9.5569   -5.2966    2.2756 O.2       1 <0>         0.0000
     21 O3          4.7482   -1.1914    0.5542 O.2       1 <0>         0.0000
     22 O4          0.3728   -3.5647    1.4736 O.2       1 <0>         0.0000
     23 H1          7.5873   -5.4588    1.8461 H         1 <0>         0.0000
     24 H2          5.7423   -3.8772    5.0075 H         1 <0>         0.0000
     25 H3          4.4501   -3.9417    3.7978 H         1 <0>         0.0000
     26 H4          4.1642   -3.1925    5.3800 H         1 <0>         0.0000
     27 H5          6.7922   -1.5734    5.6261 H         1 <0>         0.0000
     28 H6          6.2016   -0.1209    4.7985 H         1 <0>         0.0000
     29 H7          5.1564   -0.9697    5.9440 H         1 <0>         0.0000
     30 H8          3.3133   -2.7845   -2.2720 H         1 <0>         0.0000
     31 H9          2.9723   -4.4622   -2.7277 H         1 <0>         0.0000
     32 H10         4.1465   -4.1154   -1.4578 H         1 <0>         0.0000
     33 H11         1.1705   -5.4095    0.4319 H         1 <0>         0.0000
     34 H12         2.8879   -5.6535    0.1281 H         1 <0>         0.0000
     35 H13         1.7055   -5.9859   -1.1517 H         1 <0>         0.0000
     36 H14        -0.0909   -3.4848   -0.7807 H         1 <0>         0.0000
     37 H15         0.4812   -4.1517   -2.3109 H         1 <0>         0.0000
     38 H16         0.7762   -2.4505   -1.9146 H         1 <0>         0.0000
     39 H17         0.3100   -1.1637    3.6759 H         1 <0>         0.0000
     40 H18         1.6568   -1.8137    4.6368 H         1 <0>         0.0000
     41 H19         0.4467   -2.9155    3.9448 H         1 <0>         0.0000
     42 H20         7.3251   -2.6069    3.3666 H         1 <0>         0.0000
     43 H21         6.7588   -1.1249    2.6110 H         1 <0>         0.0000
     44 H22         6.8299   -3.7170   -0.1632 H         1 <0>         0.0000
     45 H23         7.4005   -2.0938    0.2440 H         1 <0>         0.0000
     46 H24         5.7385   -3.9535    2.0094 H         1 <0>         0.0000
     47 H25         2.5279   -1.8729   -0.0129 H         1 <0>         0.0000
     48 H26         4.4913   -1.4577    3.6101 H         1 <0>         0.0000
     49 H27         2.6832   -1.6060    2.5111 H         1 <0>         0.0000
     50 H28         3.8157   -4.1378    1.3829 H         1 <0>         0.0000
@<TRIPOS>BOND
     1    1   18 am
     2    1   20 2
     3    2   12 1
     4    2   17 am
     5    2   21 2
     6    3   13 1
     7    3   16 am
     8    3   22 2
     9    4   14 1
    10    5   14 1
    11    6   15 1
    12    7   15 1
    13    8   15 1
    14    9   16 1
    15   10   12 1
    16   10   14 1
    17   11   12 1
    18   11   18 1
    19   13   15 1
    20   13   17 1
    21   18   19 1
    22    1   23 1
    23    4   24 1
    24    4   25 1
    25    4   26 1
    26    5   27 1
    27    5   28 1
    28    5   29 1
    29    6   30 1
    30    6   31 1
    31    6   32 1
    32    7   33 1
    33    7   34 1
    34    7   35 1
    35    8   36 1
    36    8   37 1
    37    8   38 1
    38    9   39 1
    39    9   40 1
    40    9   41 1
    41   10   42 1
    42   10   43 1
    43   11   44 1
    44   11   45 1
    45   12   46 1
    46   13   47 1
    47   14   48 1
    48   16   49 1
    49   17   50 1
@<TRIPOS>MOLECULE
LIGAND
   50    49     0     0     0
SMALL
NO_CHARGES

@<TRIPOS>ATOM
      1 C1          5.0743   -0.8742    3.9084 C.2       1 <0>         0.0000
      2 C2          4.7609   -2.3304    1.0158 C.2       1 <0>         0.0000
      3 C3          1.3743   -3.6105    1.2141 C.2       1 <0>         0.0000
      4 C4          7.9668   -2.9805   -0.7195 C.3       1 <0>         0.0000
      5 C5          7.2752   -5.3485   -1.1277 C.3       1 <0>         0.0000
      6 C6          3.5112   -2.5312   -1.8976 C.3       1 <0>         0.0000
      7 C7          2.5798   -4.7765   -1.3563 C.3       1 <0>         0.0000
      8 C8          1.0336   -2.8618   -1.8044 C.3       1 <0>         0.0000
      9 C9         -0.8899   -3.3247    2.1744 C.3       1 <0>         0.0000
     10 C10         6.4903   -4.2069    0.9698 C.3       1 <0>         0.0000
     11 C11         5.6912   -3.2135    3.1734 C.3       1 <0>         0.0000
     12 C12         5.9953   -2.9363    1.6910 C.3       1 <0>         0.0000
     13 C13         2.4245   -2.8999    0.3599 C.3       1 <0>         0.0000
     14 C14         6.8518   -4.0083   -0.5189 C.3       1 <0>         0.0000
     15 C15         2.3718   -3.2623   -1.1540 C.3       1 <0>         0.0000
     16 N1          0.2223   -2.8565    1.3827 N.am      1 <0>         0.0000
     17 N2          3.6959   -3.2182    0.9688 N.am      1 <0>         0.0000
     18 N3          5.7903   -2.0436    4.0042 N.am      1 <0>         0.0000
     19 O1          6.7278   -2.1331    5.0145 O.3       1 <0>         0.0000
     20 O2          4.2066   -0.6199    3.0784 O.2       1 <0>         0.0000
     21 O3          4.7482   -1.1914    0.5542 O.2       1 <0>         0.0000
     22 O4          1.5569   -4.7218    1.7089 O.2       1 <0>         0.0000
     23 H1          5.3455   -0.1272    4.6753 H         1 <0>         0.0000
     24 H2          8.8753   -3.2848   -0.1883 H         1 <0>         0.0000
     25 H3          7.6713   -1.9951   -0.3441 H         1 <0>         0.0000
     26 H4          8.2323   -2.8793   -1.7758 H         1 <0>         0.0000
     27 H5          8.1599   -5.7527   -0.6240 H         1 <0>         0.0000
     28 H6          6.4698   -6.0859   -1.0440 H         1 <0>         0.0000
     29 H7          7.5125   -5.2358   -2.1909 H         1 <0>         0.0000
     30 H8          3.4182   -1.4447   -1.7906 H         1 <0>         0.0000
     31 H9          3.5120   -2.7653   -2.9677 H         1 <0>         0.0000
     32 H10         4.4918   -2.8203   -1.5020 H         1 <0>         0.0000
     33 H11         1.7979   -5.3538   -0.8491 H         1 <0>         0.0000
     34 H12         3.5395   -5.1121   -0.9494 H         1 <0>         0.0000
     35 H13         2.5489   -5.0416   -2.4191 H         1 <0>         0.0000
     36 H14         0.1926   -3.3589   -1.3070 H         1 <0>         0.0000
     37 H15         0.9978   -3.1431   -2.8622 H         1 <0>         0.0000
     38 H16         0.8573   -1.7835   -1.7352 H         1 <0>         0.0000
     39 H17        -1.5882   -3.8849    1.5471 H         1 <0>         0.0000
     40 H18        -1.4189   -2.4783    2.6208 H         1 <0>         0.0000
     41 H19        -0.5348   -3.9781    2.9759 H         1 <0>         0.0000
     42 H20         7.3727   -4.5944    1.4964 H         1 <0>         0.0000
     43 H21         5.7222   -4.9884    1.0394 H         1 <0>         0.0000
     44 H22         4.6761   -3.6079    3.2888 H         1 <0>         0.0000
     45 H23         6.3842   -3.9541    3.5861 H         1 <0>         0.0000
     46 H24         6.7931   -2.1847    1.6686 H         1 <0>         0.0000
     47 H25         2.3043   -1.8161    0.4837 H         1 <0>         0.0000
     48 H26         5.9671   -3.6628   -1.0661 H         1 <0>         0.0000
     49 H27         0.1595   -1.9470    0.9352 H         1 <0>         0.0000
     50 H28         3.8157   -4.1378    1.3829 H         1 <0>         0.0000
@<TRIPOS>BOND
     1    1   18 am
     2    1   20 2
     3    2   12 1
     4    2   17 am
     5    2   21 2
     6    3   13 1
     7    3   16 am
     8    3   22 2
     9    4   14 1
    10    5   14 1
    11    6   15 1
    12    7   15 1
    13    8   15 1
    14    9   16 1
    15   10   12 1
    16   10   14 1
    17   11   12 1
    18   11   18 1
    19   13   15 1
    20   13   17 1
    21   18   19 1
    22    1   23 1
    23    4   24 1
    24    4   25 1
    25    4   26 1
    26    5   27 1
    27    5   28 1
    28    5   29 1
    29    6   30 1
    30    6   31 1
    31    6   32 1
    32    7   33 1
    33    7   34 1
    34    7   35 1
    35    8   36 1
    36    8   37 1
    37    8   38 1
    38    9   39 1
    39    9   40 1
    40    9   41 1
    41   10   42 1
    42   10   43 1
    43   11   44 1
    44   11   45 1
    45   12   46 1
    46   13   47 1
    47   14   48 1
    48   16   49 1
    49   17   50 1
@<TRIPOS>MOLECULE
LIGAND
   50    49     0     0     0
SMALL
NO_CHARGES

@<TRIPOS>ATOM
      1 C1          6.8953   -4.2650   -1.5494 C.2       1 <0>         0.0000
      2 C2          4.7609   -2.3304    1.0158 C.2       1 <0>         0.0000
      3 C3          1.4114   -2.9063    1.5049 C.2       1 <0>         0.0000
      4 C4          4.8998   -3.3220    4.5808 C.3       1 <0>         0.0000
      5 C5          5.9126   -1.1117    5.1647 C.3       1 <0>         0.0000
      6 C6          3.1857   -3.8003   -1.8813 C.3       1 <0>         0.0000
      7 C7          1.9543   -5.3076   -0.3278 C.3       1 <0>         0.0000
      8 C8          0.7370   -3.4626   -1.4991 C.3       1 <0>         0.0000
      9 C9          1.0123   -1.9958    3.7725 C.3       1 <0>         0.0000
     10 C10         6.4405   -2.1272    2.9267 C.3       1 <0>         0.0000
     11 C11         7.1342   -3.0688    0.6654 C.3       1 <0>         0.0000
     12 C12         5.9953   -2.9363    1.6910 C.3       1 <0>         0.0000
     13 C13         2.4245   -2.8999    0.3599 C.3       1 <0>         0.0000
     14 C14         5.3645   -1.9750    4.0244 C.3       1 <0>         0.0000
     15 C15         2.0646   -3.8508   -0.8201 C.3       1 <0>         0.0000
     16 N1          1.8071   -2.1159    2.5738 N.am      1 <0>         0.0000
     17 N2          3.6959   -3.2182    0.9688 N.am      1 <0>         0.0000
     18 N3          7.0083   -4.2255   -0.1801 N.am      1 <0>         0.0000
     19 O1          7.0029   -5.4319    0.4925 O.3       1 <0>         0.0000
     20 O2          6.7892   -5.2738   -2.2405 O.2       1 <0>         0.0000
     21 O3          4.7482   -1.1914    0.5542 O.2       1 <0>         0.0000
     22 O4          0.3728   -3.5647    1.4736 O.2       1 <0>         0.0000
     23 H1          6.9064   -3.2668   -2.0216 H         1 <0>         0.0000
     24 H2          5.7423   -3.8772    5.0075 H         1 <0>         0.0000
     25 H3          4.4501   -3.9417    3.7978 H         1 <0>         0.0000
     26 H4          4.1642   -3.1925    5.3800 H         1 <0>         0.0000
     27 H5          6.7922   -1.5734    5.6261 H         1 <0>         0.0000
     28 H6          6.2016   -0.1209    4.7985 H         1 <0>         0.0000
     29 H7          5.1564   -0.9697    5.9440 H         1 <0>         0.0000
     30 H8          3.3133   -2.7845   -2.2720 H         1 <0>         0.0000
     31 H9          2.9723   -4.4622   -2.7277 H         1 <0>         0.0000
     32 H10         4.1465   -4.1154   -1.4578 H         1 <0>         0.0000
     33 H11         1.1705   -5.4095    0.4319 H         1 <0>         0.0000
     34 H12         2.8879   -5.6535    0.1281 H         1 <0>         0.0000
     35 H13         1.7055   -5.9859   -1.1517 H         1 <0>         0.0000
     36 H14        -0.0909   -3.4848   -0.7807 H         1 <0>         0.0000
     37 H15         0.4812   -4.1517   -2.3109 H         1 <0>         0.0000
     38 H16         0.7762   -2.4505   -1.9146 H         1 <0>         0.0000
     39 H17         0.3100   -1.1637    3.6759 H         1 <0>         0.0000
     40 H18         1.6568   -1.8137    4.6368 H         1 <0>         0.0000
     41 H19         0.4467   -2.9155    3.9448 H         1 <0>         0.0000
     42 H20         7.3251   -2.6069    3.3666 H         1 <0>         0.0000
     43 H21         6.7588   -1.1249    2.6110 H         1 <0>         0.0000
     44 H22         7.1645   -2.1910    0.0112 H         1 <0>         0.0000
     45 H23         8.1063   -3.1455    1.1636 H         1 <0>         0.0000
     46 H24         5.7385   -3.9535    2.0094 H         1 <0>         0.0000
     47 H25         2.5279   -1.8729   -0.0129 H         1 <0>         0.0000
     48 H26         4.4913   -1.4577    3.6101 H         1 <0>         0.0000
     49 H27         2.6832   -1.6060    2.5111 H         1 <0>         0.0000
     50 H28         3.8157   -4.1378    1.3829 H         1 <0>         0.0000
@<TRIPOS>BOND
     1    1   18 am
     2    1   20 2
     3    2   12 1
     4    2   17 am
     5    2   21 2
     6    3   13 1
     7    3   16 am
     8    3   22 2
     9    4   14 1
    10    5   14 1
    11    6   15 1
    12    7   15 1
    13    8   15 1
    14    9   16 1
    15   10   12 1
    16   10   14 1
    17   11   12 1
    18   11   18 1
    19   13   15 1
    20   13   17 1
    21   18   19 1
    22    1   23 1
    23    4   24 1
    24    4   25 1
    25    4   26 1
    26    5   27 1
    27    5   28 1
    28    5   29 1
    29    6   30 1
    30    6   31 1
    31    6   32 1
    32    7   33 1
    33    7   34 1
    34    7   35 1
    35    8   36 1
    36    8   37 1
    37    8   38 1
    38    9   39 1
    39    9   40 1
    40    9   41 1
    41   10   42 1
    42   10   43 1
    43   11   44 1
    44   11   45 1
    45   12   46 1
    46   13   47 1
    47   14   48 1
    48   16   49 1
    49   17   50 1
@<TRIPOS>MOLECULE
LIGAND
   50    49     0     0     0
SMALL
NO_CHARGES

@<TRIPOS>ATOM
      1 C1          7.8390   -4.4407   -0.3957 C.2       1 <0>         0.0000
      2 C2          4.7609   -2.3304    1.0158 C.2       1 <0>         0.0000
      3 C3          1.3743   -3.6105    1.2141 C.2       1 <0>         0.0000
      4 C4          5.4286   -5.0551    3.9022 C.3       1 <0>         0.0000
      5 C5          5.1681   -3.1669    5.5205 C.3       1 <0>         0.0000
      6 C6          3.5112   -2.5312   -1.8976 C.3       1 <0>         0.0000
      7 C7          2.5798   -4.7765   -1.3563 C.3       1 <0>         0.0000
      8 C8          1.0336   -2.8618   -1.8044 C.3       1 <0>         0.0000
      9 C9          0.0942   -3.3985    3.3229 C.3       1 <0>         0.0000
     10 C10         6.0212   -2.6662    3.2096 C.3       1 <0>         0.0000
     11 C11         7.2695   -2.4142    1.0053 C.3       1 <0>         0.0000
     12 C12         5.9953   -2.9363    1.6910 C.3       1 <0>         0.0000
     13 C13         2.4245   -2.8999    0.3599 C.3       1 <0>         0.0000
     14 C14         5.0884   -3.5706    4.0452 C.3       1 <0>         0.0000
     15 C15         2.3718   -3.2623   -1.1540 C.3       1 <0>         0.0000
     16 N1          1.0472   -2.9007    2.3600 N.am      1 <0>         0.0000
     17 N2          3.6959   -3.2182    0.9688 N.am      1 <0>         0.0000
     18 N3          7.5808   -3.1022   -0.2189 N.am      1 <0>         0.0000
     19 O1          7.6186   -2.2950   -1.3390 O.3       1 <0>         0.0000
     20 O2          7.8488   -5.3003    0.4804 O.2       1 <0>         0.0000
     21 O3          4.7482   -1.1914    0.5542 O.2       1 <0>         0.0000
     22 O4          0.8978   -4.7040    0.9134 O.2       1 <0>         0.0000
     23 H1          8.0512   -4.7140   -1.4445 H         1 <0>         0.0000
     24 H2          6.4596   -5.2491    4.2175 H         1 <0>         0.0000
     25 H3          5.3256   -5.3883    2.8641 H         1 <0>         0.0000
     26 H4          4.7804   -5.6761    4.5273 H         1 <0>         0.0000
     27 H5          6.1838   -3.2884    5.9121 H         1 <0>         0.0000
     28 H6          4.8754   -2.1200    5.6540 H         1 <0>         0.0000
     29 H7          4.4947   -3.7797    6.1290 H         1 <0>         0.0000
     30 H8          3.4182   -1.4447   -1.7906 H         1 <0>         0.0000
     31 H9          3.5120   -2.7653   -2.9677 H         1 <0>         0.0000
     32 H10         4.4918   -2.8203   -1.5020 H         1 <0>         0.0000
     33 H11         1.7979   -5.3538   -0.8491 H         1 <0>         0.0000
     34 H12         3.5395   -5.1121   -0.9494 H         1 <0>         0.0000
     35 H13         2.5489   -5.0416   -2.4191 H         1 <0>         0.0000
     36 H14         0.1926   -3.3589   -1.3070 H         1 <0>         0.0000
     37 H15         0.9978   -3.1431   -2.8622 H         1 <0>         0.0000
     38 H16         0.8573   -1.7835   -1.7352 H         1 <0>         0.0000
     39 H17        -0.9122   -3.0580    3.0659 H         1 <0>         0.0000
     40 H18         0.3436   -3.0358    4.3238 H         1 <0>         0.0000
     41 H19         0.1039   -4.4917    3.3338 H         1 <0>         0.0000
     42 H20         7.0493   -2.7891    3.5757 H         1 <0>         0.0000
     43 H21         5.7503   -1.6191    3.3985 H         1 <0>         0.0000
     44 H22         7.1657   -1.3514    0.7623 H         1 <0>         0.0000
     45 H23         8.1413   -2.5219    1.6590 H         1 <0>         0.0000
     46 H24         5.9704   -4.0198    1.5260 H         1 <0>         0.0000
     47 H25         2.3043   -1.8161    0.4837 H         1 <0>         0.0000
     48 H26         4.0519   -3.4254    3.7195 H         1 <0>         0.0000
     49 H27         1.4921   -2.0031    2.5267 H         1 <0>         0.0000
     50 H28         3.8157   -4.1378    1.3829 H         1 <0>         0.0000
@<TRIPOS>BOND
     1    1   18 am
     2    1   20 2
     3    2   12 1
     4    2   17 am
     5    2   21 2
     6    3   13 1
     7    3   16 am
     8    3   22 2
     9    4   14 1
    10    5   14 1
    11    6   15 1
    12    7   15 1
    13    8   15 1
    14    9   16 1
    15   10   12 1
    16   10   14 1
    17   11   12 1
    18   11   18 1
    19   13   15 1
    20   13   17 1
    21   18   19 1
    22    1   23 1
    23    4   24 1
    24    4   25 1
    25    4   26 1
    26    5   27 1
    27    5   28 1
    28    5   29 1
    29    6   30 1
    30    6   31 1
    31    6   32 1
    32    7   33 1
    33    7   34 1
    34    7   35 1
    35    8   36 1
    36    8   37 1
    37    8   38 1
    38    9   39 1
    39    9   40 1
    40    9   41 1
    41   10   42 1
    42   10   43 1
    43   11   44 1
    44   11   45 1
    45   12   46 1
    46   13   47 1
    47   14   48 1
    48   16   49 1
    49   17   50 1
@<TRIPOS>MOLECULE
LIGAND
   50    49     0     0     0
SMALL
NO_CHARGES

@<TRIPOS>ATOM
      1 C1          6.6167   -2.7186   -1.6426 C.2       1 <0>         0.0000
      2 C2          4.7609   -2.3304    1.0158 C.2       1 <0>         0.0000
      3 C3          1.6238   -2.1763    1.4428 C.2       1 <0>         0.0000
      4 C4          5.5916   -1.8934    4.5978 C.3       1 <0>         0.0000
      5 C5          7.0929    0.0222    4.0244 C.3       1 <0>         0.0000
      6 C6          2.6382   -4.8237   -1.2732 C.3       1 <0>         0.0000
      7 C7          1.4139   -5.1834    0.8654 C.3       1 <0>         0.0000
      8 C8          0.3871   -3.7862   -0.9377 C.3       1 <0>         0.0000
      9 C9          1.3383    0.0348    2.5199 C.3       1 <0>         0.0000
     10 C10         6.8665   -1.8668    2.3816 C.3       1 <0>         0.0000
     11 C11         6.8055   -3.7427    0.6616 C.3       1 <0>         0.0000
     12 C12         5.9953   -2.9363    1.6910 C.3       1 <0>         0.0000
     13 C13         2.4245   -2.8999    0.3599 C.3       1 <0>         0.0000
     14 C14         6.1374   -1.0321    3.4575 C.3       1 <0>         0.0000
     15 C15         1.7114   -4.1488   -0.2382 C.3       1 <0>         0.0000
     16 N1          1.9549   -0.8333    1.5455 N.am      1 <0>         0.0000
     17 N2          3.6959   -3.2182    0.9688 N.am      1 <0>         0.0000
     18 N3          7.2606   -2.9528   -0.4510 N.am      1 <0>         0.0000
     19 O1          8.4998   -2.3693   -0.2736 O.3       1 <0>         0.0000
     20 O2          7.0363   -2.0369   -2.5730 O.2       1 <0>         0.0000
     21 O3          4.7482   -1.1914    0.5542 O.2       1 <0>         0.0000
     22 O4          0.7950   -2.7447    2.1522 O.2       1 <0>         0.0000
     23 H1          5.6327   -3.2146   -1.7169 H         1 <0>         0.0000
     24 H2          6.4006   -2.4456    5.0885 H         1 <0>         0.0000
     25 H3          4.8609   -2.6219    4.2310 H         1 <0>         0.0000
     26 H4          5.1097   -1.2817    5.3659 H         1 <0>         0.0000
     27 H5          7.9623   -0.4436    4.5008 H         1 <0>         0.0000
     28 H6          7.4545    0.6861    3.2321 H         1 <0>         0.0000
     29 H7          6.5886    0.6429    4.7727 H         1 <0>         0.0000
     30 H8          2.8872   -4.1345   -2.0879 H         1 <0>         0.0000
     31 H9          2.1738   -5.7124   -1.7140 H         1 <0>         0.0000
     32 H10         3.5794   -5.1449   -0.8119 H         1 <0>         0.0000
     33 H11         0.7565   -4.7621    1.6349 H         1 <0>         0.0000
     34 H12         2.3282   -5.5113    1.3711 H         1 <0>         0.0000
     35 H13         0.9158   -6.0685    0.4541 H         1 <0>         0.0000
     36 H14        -0.3050   -3.3025   -0.2384 H         1 <0>         0.0000
     37 H15        -0.1179   -4.6740   -1.3329 H         1 <0>         0.0000
     38 H16         0.5457   -3.0900   -1.7676 H         1 <0>         0.0000
     39 H17         0.4402    0.4941    2.0989 H         1 <0>         0.0000
     40 H18         2.0331    0.8259    2.8147 H         1 <0>         0.0000
     41 H19         1.0580   -0.5350    3.4100 H         1 <0>         0.0000
     42 H20         7.7322   -2.3581    2.8457 H         1 <0>         0.0000
     43 H21         7.2705   -1.1813    1.6250 H         1 <0>         0.0000
     44 H22         7.6920   -4.1821    1.1312 H         1 <0>         0.0000
     45 H23         6.2097   -4.5617    0.2452 H         1 <0>         0.0000
     46 H24         5.6479   -3.6501    2.4472 H         1 <0>         0.0000
     47 H25         2.6549   -2.1876   -0.4426 H         1 <0>         0.0000
     48 H26         5.2955   -0.5008    2.9986 H         1 <0>         0.0000
     49 H27         2.6527   -0.4488    0.9157 H         1 <0>         0.0000
     50 H28         3.8157   -4.1378    1.3829 H         1 <0>         0.0000
@<TRIPOS>BOND
     1    1   18 am
     2    1   20 2
     3    2   12 1
     4    2   17 am
     5    2   21 2
     6    3   13 1
     7    3   16 am
     8    3   22 2
     9    4   14 1
    10    5   14 1
    11    6   15 1
    12    7   15 1
    13    8   15 1
    14    9   16 1
    15   10   12 1
    16   10   14 1
    17   11   12 1
    18   11   18 1
    19   13   15 1
    20   13   17 1
    21   18   19 1
    22    1   23 1
    23    4   24 1
    24    4   25 1
    25    4   26 1
    26    5   27 1
    27    5   28 1
    28    5   29 1
    29    6   30 1
    30    6   31 1
    31    6   32 1
    32    7   33 1
    33    7   34 1
    34    7   35 1
    35    8   36 1
    36    8   37 1
    37    8   38 1
    38    9   39 1
    39    9   40 1
    40    9   41 1
    41   10   42 1
    42   10   43 1
    43   11   44 1
    44   11   45 1
    45   12   46 1
    46   13   47 1
    47   14   48 1
    48   16   49 1
    49   17   50 1
@<TRIPOS>MOLECULE
LIGAND
   50    49     0     0     0
SMALL
NO_CHARGES

@<TRIPOS>ATOM
      1 C1          7.8677   -2.4259    4.1911 C.2       1 <0>         0.0000
      2 C2          4.7609   -2.3304    1.0158 C.2       1 <0>         0.0000
      3 C3          1.6238   -2.1763    1.4428 C.2       1 <0>         0.0000
      4 C4          7.9668   -2.9805   -0.7195 C.3       1 <0>         0.0000
      5 C5          7.2752   -5.3485   -1.1277 C.3       1 <0>         0.0000
      6 C6          2.6382   -4.8237   -1.2732 C.3       1 <0>         0.0000
      7 C7          1.4139   -5.1834    0.8654 C.3       1 <0>         0.0000
      8 C8          0.3871   -3.7862   -0.9377 C.3       1 <0>         0.0000
      9 C9          1.3383    0.0348    2.5199 C.3       1 <0>         0.0000
     10 C10         6.4903   -4.2069    0.9698 C.3       1 <0>         0.0000
     11 C11         5.6912   -3.2135    3.1734 C.3       1 <0>         0.0000
     12 C12         5.9953   -2.9363    1.6910 C.3       1 <0>         0.0000
     13 C13         2.4245   -2.8999    0.3599 C.3       1 <0>         0.0000
     14 C14         6.8518   -4.0083   -0.5189 C.3       1 <0>         0.0000
     15 C15         1.7114   -4.1488   -0.2382 C.3       1 <0>         0.0000
     16 N1          1.9549   -0.8333    1.5455 N.am      1 <0>         0.0000
     17 N2          3.6959   -3.2182    0.9688 N.am      1 <0>         0.0000
     18 N3          6.8729   -3.3510    3.9817 N.am      1 <0>         0.0000
     19 O1          6.9987   -4.5727    4.6137 O.3       1 <0>         0.0000
     20 O2          8.8654   -2.5779    4.8898 O.2       1 <0>         0.0000
     21 O3          4.7482   -1.1914    0.5542 O.2       1 <0>         0.0000
     22 O4          0.7950   -2.7447    2.1522 O.2       1 <0>         0.0000
     23 H1          7.7038   -1.4735    3.6565 H         1 <0>         0.0000
     24 H2          8.8753   -3.2848   -0.1883 H         1 <0>         0.0000
     25 H3          7.6713   -1.9951   -0.3441 H         1 <0>         0.0000
     26 H4          8.2323   -2.8793   -1.7758 H         1 <0>         0.0000
     27 H5          8.1599   -5.7527   -0.6240 H         1 <0>         0.0000
     28 H6          6.4698   -6.0859   -1.0440 H         1 <0>         0.0000
     29 H7          7.5125   -5.2358   -2.1909 H         1 <0>         0.0000
     30 H8          2.8872   -4.1345   -2.0879 H         1 <0>         0.0000
     31 H9          2.1738   -5.7124   -1.7140 H         1 <0>         0.0000
     32 H10         3.5794   -5.1449   -0.8119 H         1 <0>         0.0000
     33 H11         0.7565   -4.7621    1.6349 H         1 <0>         0.0000
     34 H12         2.3282   -5.5113    1.3711 H         1 <0>         0.0000
     35 H13         0.9158   -6.0685    0.4541 H         1 <0>         0.0000
     36 H14        -0.3050   -3.3025   -0.2384 H         1 <0>         0.0000
     37 H15        -0.1179   -4.6740   -1.3329 H         1 <0>         0.0000
     38 H16         0.5457   -3.0900   -1.7676 H         1 <0>         0.0000
     39 H17         0.4402    0.4941    2.0989 H         1 <0>         0.0000
     40 H18         2.0331    0.8259    2.8147 H         1 <0>         0.0000
     41 H19         1.0580   -0.5350    3.4100 H         1 <0>         0.0000
     42 H20         7.3727   -4.5944    1.4964 H         1 <0>         0.0000
     43 H21         5.7222   -4.9884    1.0394 H         1 <0>         0.0000
     44 H22         5.0986   -2.3982    3.6018 H         1 <0>         0.0000
     45 H23         5.1177   -4.1388    3.2917 H         1 <0>         0.0000
     46 H24         6.7931   -2.1847    1.6686 H         1 <0>         0.0000
     47 H25         2.6549   -2.1876   -0.4426 H         1 <0>         0.0000
     48 H26         5.9671   -3.6628   -1.0661 H         1 <0>         0.0000
     49 H27         2.6527   -0.4488    0.9157 H         1 <0>         0.0000
     50 H28         3.8157   -4.1378    1.3829 H         1 <0>         0.0000
@<TRIPOS>BOND
     1    1   18 am
     2    1   20 2
     3    2   12 1
     4    2   17 am
     5    2   21 2
     6    3   13 1
     7    3   16 am
     8    3   22 2
     9    4   14 1
    10    5   14 1
    11    6   15 1
    12    7   15 1
    13    8   15 1
    14    9   16 1
    15   10   12 1
    16   10   14 1
    17   11   12 1
    18   11   18 1
    19   13   15 1
    20   13   17 1
    21   18   19 1
    22    1   23 1
    23    4   24 1
    24    4   25 1
    25    4   26 1
    26    5   27 1
    27    5   28 1
    28    5   29 1
    29    6   30 1
    30    6   31 1
    31    6   32 1
    32    7   33 1
    33    7   34 1
    34    7   35 1
    35    8   36 1
    36    8   37 1
    37    8   38 1
    38    9   39 1
    39    9   40 1
    40    9   41 1
    41   10   42 1
    42   10   43 1
    43   11   44 1
    44   11   45 1
    45   12   46 1
    46   13   47 1
    47   14   48 1
    48   16   49 1
    49   17   50 1
@<TRIPOS>MOLECULE
LIGAND
   50    49     0     0     0
SMALL
NO_CHARGES

@<TRIPOS>ATOM
      1 C1          8.7148   -3.8168   -0.5236 C.2       1 <0>         0.0000
      2 C2          4.7609   -2.3304    1.0158 C.2       1 <0>         0.0000
      3 C3          1.6238   -2.1763    1.4428 C.2       1 <0>         0.0000
      4 C4          5.4286   -5.0551    3.9022 C.3       1 <0>         0.0000
      5 C5          5.1681   -3.1669    5.5205 C.3       1 <0>         0.0000
      6 C6          2.6382   -4.8237   -1.2732 C.3       1 <0>         0.0000
      7 C7          1.4139   -5.1834    0.8654 C.3       1 <0>         0.0000
      8 C8          0.3871   -3.7862   -0.9377 C.3       1 <0>         0.0000
      9 C9          0.7109    0.0436    2.0502 C.3       1 <0>         0.0000
     10 C10         6.0212   -2.6662    3.2096 C.3       1 <0>         0.0000
     11 C11         7.2695   -2.4142    1.0053 C.3       1 <0>         0.0000
     12 C12         5.9953   -2.9363    1.6910 C.3       1 <0>         0.0000
     13 C13         2.4245   -2.8999    0.3599 C.3       1 <0>         0.0000
     14 C14         5.0884   -3.5706    4.0452 C.3       1 <0>         0.0000
     15 C15         1.7114   -4.1488   -0.2382 C.3       1 <0>         0.0000
     16 N1          1.4216   -0.8351    1.1525 N.am      1 <0>         0.0000
     17 N2          3.6959   -3.2182    0.9688 N.am      1 <0>         0.0000
     18 N3          7.5808   -3.1022   -0.2189 N.am      1 <0>         0.0000
     19 O1          6.6030   -3.0183   -1.1907 O.3       1 <0>         0.0000
     20 O2          8.9475   -4.3930   -1.5821 O.2       1 <0>         0.0000
     21 O3          4.7482   -1.1914    0.5542 O.2       1 <0>         0.0000
     22 O4          1.2284   -2.7340    2.4655 O.2       1 <0>         0.0000
     23 H1          9.4534   -3.8427    0.2970 H         1 <0>         0.0000
     24 H2          6.4596   -5.2491    4.2175 H         1 <0>         0.0000
     25 H3          5.3256   -5.3883    2.8641 H         1 <0>         0.0000
     26 H4          4.7804   -5.6761    4.5273 H         1 <0>         0.0000
     27 H5          6.1838   -3.2884    5.9121 H         1 <0>         0.0000
     28 H6          4.8754   -2.1200    5.6540 H         1 <0>         0.0000
     29 H7          4.4947   -3.7797    6.1290 H         1 <0>         0.0000
     30 H8          2.8872   -4.1345   -2.0879 H         1 <0>         0.0000
     31 H9          2.1738   -5.7124   -1.7140 H         1 <0>         0.0000
     32 H10         3.5794   -5.1449   -0.8119 H         1 <0>         0.0000
     33 H11         0.7565   -4.7621    1.6349 H         1 <0>         0.0000
     34 H12         2.3282   -5.5113    1.3711 H         1 <0>         0.0000
     35 H13         0.9158   -6.0685    0.4541 H         1 <0>         0.0000
     36 H14        -0.3050   -3.3025   -0.2384 H         1 <0>         0.0000
     37 H15        -0.1179   -4.6740   -1.3329 H         1 <0>         0.0000
     38 H16         0.5457   -3.0900   -1.7676 H         1 <0>         0.0000
     39 H17        -0.3565    0.0379    1.8148 H         1 <0>         0.0000
     40 H18         1.0868    1.0659    1.9547 H         1 <0>         0.0000
     41 H19         0.8449   -0.2838    3.0846 H         1 <0>         0.0000
     42 H20         7.0493   -2.7891    3.5757 H         1 <0>         0.0000
     43 H21         5.7503   -1.6191    3.3985 H         1 <0>         0.0000
     44 H22         7.1657   -1.3514    0.7623 H         1 <0>         0.0000
     45 H23         8.1413   -2.5219    1.6590 H         1 <0>         0.0000
     46 H24         5.9704   -4.0198    1.5260 H         1 <0>         0.0000
     47 H25         2.6549   -2.1876   -0.4426 H         1 <0>         0.0000
     48 H26         4.0519   -3.4254    3.7195 H         1 <0>         0.0000
     49 H27         1.7849   -0.4599    0.2815 H         1 <0>         0.0000
     50 H28         3.8157   -4.1378    1.3829 H         1 <0>         0.0000
@<TRIPOS>BOND
     1    1   18 am
     2    1   20 2
     3    2   12 1
     4    2   17 am
     5    2   21 2
     6    3   13 1
     7    3   16 am
     8    3   22 2
     9    4   14 1
    10    5   14 1
    11    6   15 1
    12    7   15 1
    13    8   15 1
    14    9   16 1
    15   10   12 1
    16   10   14 1
    17   11   12 1
    18   11   18 1
    19   13   15 1
    20   13   17 1
    21   18   19 1
    22    1   23 1
    23    4   24 1
    24    4   25 1
    25    4   26 1
    26    5   27 1
    27    5   28 1
    28    5   29 1
    29    6   30 1
    30    6   31 1
    31    6   32 1
    32    7   33 1
    33    7   34 1
    34    7   35 1
    35    8   36 1
    36    8   37 1
    37    8   38 1
    38    9   39 1
    39    9   40 1
    40    9   41 1
    41   10   42 1
    42   10   43 1
    43   11   44 1
    44   11   45 1
    45   12   46 1
    46   13   47 1
    47   14   48 1
    48   16   49 1
    49   17   50 1
@<TRIPOS>MOLECULE
LIGAND
   50    49     0     0     0
SMALL
NO_CHARGES

@<TRIPOS>ATOM
      1 C1          7.5576   -2.3672    4.6544 C.2       1 <0>         0.0000
      2 C2          4.7609   -2.3304    1.0158 C.2       1 <0>         0.0000
      3 C3          1.3743   -3.6105    1.2141 C.2       1 <0>         0.0000
      4 C4          7.9668   -2.9805   -0.7195 C.3       1 <0>         0.0000
      5 C5          7.2752   -5.3485   -1.1277 C.3       1 <0>         0.0000
      6 C6          2.9144   -2.0789   -1.9851 C.3       1 <0>         0.0000
      7 C7          3.2618   -4.4861   -1.4495 C.3       1 <0>         0.0000
      8 C8          0.9399   -3.5730   -1.6309 C.3       1 <0>         0.0000
      9 C9         -0.4638   -3.1822    2.8167 C.3       1 <0>         0.0000
     10 C10         6.4903   -4.2069    0.9698 C.3       1 <0>         0.0000
     11 C11         5.6912   -3.2135    3.1734 C.3       1 <0>         0.0000
     12 C12         5.9953   -2.9363    1.6910 C.3       1 <0>         0.0000
     13 C13         2.4245   -2.8999    0.3599 C.3       1 <0>         0.0000
     14 C14         6.8518   -4.0083   -0.5189 C.3       1 <0>         0.0000
     15 C15         2.3718   -3.2623   -1.1540 C.3       1 <0>         0.0000
     16 N1          0.5772   -2.7269    1.9268 N.am      1 <0>         0.0000
     17 N2          3.6959   -3.2182    0.9688 N.am      1 <0>         0.0000
     18 N3          6.8729   -3.3510    3.9817 N.am      1 <0>         0.0000
     19 O1          7.3583   -4.6406    4.0766 O.3       1 <0>         0.0000
     20 O2          7.2727   -1.1736    4.6825 O.2       1 <0>         0.0000
     21 O3          4.7482   -1.1914    0.5542 O.2       1 <0>         0.0000
     22 O4          1.2756   -4.8354    1.2685 O.2       1 <0>         0.0000
     23 H1          8.4389   -2.7411    5.2052 H         1 <0>         0.0000
     24 H2          8.8753   -3.2848   -0.1883 H         1 <0>         0.0000
     25 H3          7.6713   -1.9951   -0.3441 H         1 <0>         0.0000
     26 H4          8.2323   -2.8793   -1.7758 H         1 <0>         0.0000
     27 H5          8.1599   -5.7527   -0.6240 H         1 <0>         0.0000
     28 H6          6.4698   -6.0859   -1.0440 H         1 <0>         0.0000
     29 H7          7.5125   -5.2358   -2.1909 H         1 <0>         0.0000
     30 H8          2.3199   -1.1739   -1.8172 H         1 <0>         0.0000
     31 H9          2.8994   -2.2973   -3.0585 H         1 <0>         0.0000
     32 H10         3.9518   -1.8484   -1.7158 H         1 <0>         0.0000
     33 H11         2.9258   -5.3642   -0.8858 H         1 <0>         0.0000
     34 H12         4.3049   -4.3063   -1.1689 H         1 <0>         0.0000
     35 H13         3.2353   -4.7468   -2.5135 H         1 <0>         0.0000
     36 H14         0.5126   -4.4101   -1.0664 H         1 <0>         0.0000
     37 H15         0.9176   -3.8503   -2.6901 H         1 <0>         0.0000
     38 H16         0.2727   -2.7163   -1.4916 H         1 <0>         0.0000
     39 H17        -1.4067   -3.2811    2.2725 H         1 <0>         0.0000
     40 H18        -0.6020   -2.4684    3.6333 H         1 <0>         0.0000
     41 H19        -0.1993   -4.1542    3.2419 H         1 <0>         0.0000
     42 H20         7.3727   -4.5944    1.4964 H         1 <0>         0.0000
     43 H21         5.7222   -4.9884    1.0394 H         1 <0>         0.0000
     44 H22         5.0986   -2.3982    3.6018 H         1 <0>         0.0000
     45 H23         5.1177   -4.1388    3.2917 H         1 <0>         0.0000
     46 H24         6.7931   -2.1847    1.6686 H         1 <0>         0.0000
     47 H25         2.3043   -1.8161    0.4837 H         1 <0>         0.0000
     48 H26         5.9671   -3.6628   -1.0661 H         1 <0>         0.0000
     49 H27         0.7309   -1.7288    1.8190 H         1 <0>         0.0000
     50 H28         3.8157   -4.1378    1.3829 H         1 <0>         0.0000
@<TRIPOS>BOND
     1    1   18 am
     2    1   20 2
     3    2   12 1
     4    2   17 am
     5    2   21 2
     6    3   13 1
     7    3   16 am
     8    3   22 2
     9    4   14 1
    10    5   14 1
    11    6   15 1
    12    7   15 1
    13    8   15 1
    14    9   16 1
    15   10   12 1
    16   10   14 1
    17   11   12 1
    18   11   18 1
    19   13   15 1
    20   13   17 1
    21   18   19 1
    22    1   23 1
    23    4   24 1
    24    4   25 1
    25    4   26 1
    26    5   27 1
    27    5   28 1
    28    5   29 1
    29    6   30 1
    30    6   31 1
    31    6   32 1
    32    7   33 1
    33    7   34 1
    34    7   35 1
    35    8   36 1
    36    8   37 1
    37    8   38 1
    38    9   39 1
    39    9   40 1
    40    9   41 1
    41   10   42 1
    42   10   43 1
    43   11   44 1
    44   11   45 1
    45   12   46 1
    46   13   47 1
    47   14   48 1
    48   16   49 1
    49   17   50 1
@<TRIPOS>MOLECULE
LIGAND
   50    49     0     0     0
SMALL
NO_CHARGES

@<TRIPOS>ATOM
      1 C1          8.7053   -4.9474    1.2944 C.2       1 <0>         0.0000
      2 C2          4.7609   -2.3304    1.0158 C.2       1 <0>         0.0000
      3 C3          1.6238   -2.1763    1.4428 C.2       1 <0>         0.0000
      4 C4          4.8998   -3.3220    4.5808 C.3       1 <0>         0.0000
      5 C5          5.9126   -1.1117    5.1647 C.3       1 <0>         0.0000
      6 C6          2.6382   -4.8237   -1.2732 C.3       1 <0>         0.0000
      7 C7          1.4139   -5.1834    0.8654 C.3       1 <0>         0.0000
      8 C8          0.3871   -3.7862   -0.9377 C.3       1 <0>         0.0000
      9 C9          1.1427   -2.2044    3.8715 C.3       1 <0>         0.0000
     10 C10         6.4405   -2.1272    2.9267 C.3       1 <0>         0.0000
     11 C11         7.1342   -3.0688    0.6654 C.3       1 <0>         0.0000
     12 C12         5.9953   -2.9363    1.6910 C.3       1 <0>         0.0000
     13 C13         2.4245   -2.8999    0.3599 C.3       1 <0>         0.0000
     14 C14         5.3645   -1.9750    4.0244 C.3       1 <0>         0.0000
     15 C15         1.7114   -4.1488   -0.2382 C.3       1 <0>         0.0000
     16 N1          1.8198   -2.7177    2.7048 N.am      1 <0>         0.0000
     17 N2          3.6959   -3.2182    0.9688 N.am      1 <0>         0.0000
     18 N3          8.3392   -3.6246    1.2202 N.am      1 <0>         0.0000
     19 O1          9.2189   -2.6926    1.7349 O.3       1 <0>         0.0000
     20 O2          9.7450   -5.3872    1.7763 O.2       1 <0>         0.0000
     21 O3          4.7482   -1.1914    0.5542 O.2       1 <0>         0.0000
     22 O4          0.8744   -1.2316    1.1999 O.2       1 <0>         0.0000
     23 H1          7.9568   -5.6368    0.8652 H         1 <0>         0.0000
     24 H2          5.7423   -3.8772    5.0075 H         1 <0>         0.0000
     25 H3          4.4501   -3.9417    3.7978 H         1 <0>         0.0000
     26 H4          4.1642   -3.1925    5.3800 H         1 <0>         0.0000
     27 H5          6.7922   -1.5734    5.6261 H         1 <0>         0.0000
     28 H6          6.2016   -0.1209    4.7985 H         1 <0>         0.0000
     29 H7          5.1564   -0.9697    5.9440 H         1 <0>         0.0000
     30 H8          2.8872   -4.1345   -2.0879 H         1 <0>         0.0000
     31 H9          2.1738   -5.7124   -1.7140 H         1 <0>         0.0000
     32 H10         3.5794   -5.1449   -0.8119 H         1 <0>         0.0000
     33 H11         0.7565   -4.7621    1.6349 H         1 <0>         0.0000
     34 H12         2.3282   -5.5113    1.3711 H         1 <0>         0.0000
     35 H13         0.9158   -6.0685    0.4541 H         1 <0>         0.0000
     36 H14        -0.3050   -3.3025   -0.2384 H         1 <0>         0.0000
     37 H15        -0.1179   -4.6740   -1.3329 H         1 <0>         0.0000
     38 H16         0.5457   -3.0900   -1.7676 H         1 <0>         0.0000
     39 H17         1.7401   -1.4157    4.3360 H         1 <0>         0.0000
     40 H18         0.9874   -3.0042    4.6007 H         1 <0>         0.0000
     41 H19         0.1698   -1.7909    3.5925 H         1 <0>         0.0000
     42 H20         7.3251   -2.6069    3.3666 H         1 <0>         0.0000
     43 H21         6.7588   -1.1249    2.6110 H         1 <0>         0.0000
     44 H22         6.8299   -3.7170   -0.1632 H         1 <0>         0.0000
     45 H23         7.4005   -2.0938    0.2440 H         1 <0>         0.0000
     46 H24         5.7385   -3.9535    2.0094 H         1 <0>         0.0000
     47 H25         2.6549   -2.1876   -0.4426 H         1 <0>         0.0000
     48 H26         4.4913   -1.4577    3.6101 H         1 <0>         0.0000
     49 H27         2.4595   -3.4993    2.8111 H         1 <0>         0.0000
     50 H28         3.8157   -4.1378    1.3829 H         1 <0>         0.0000
@<TRIPOS>BOND
     1    1   18 am
     2    1   20 2
     3    2   12 1
     4    2   17 am
     5    2   21 2
     6    3   13 1
     7    3   16 am
     8    3   22 2
     9    4   14 1
    10    5   14 1
    11    6   15 1
    12    7   15 1
    13    8   15 1
    14    9   16 1
    15   10   12 1
    16   10   14 1
    17   11   12 1
    18   11   18 1
    19   13   15 1
    20   13   17 1
    21   18   19 1
    22    1   23 1
    23    4   24 1
    24    4   25 1
    25    4   26 1
    26    5   27 1
    27    5   28 1
    28    5   29 1
    29    6   30 1
    30    6   31 1
    31    6   32 1
    32    7   33 1
    33    7   34 1
    34    7   35 1
    35    8   36 1
    36    8   37 1
    37    8   38 1
    38    9   39 1
    39    9   40 1
    40    9   41 1
    41   10   42 1
    42   10   43 1
    43   11   44 1
    44   11   45 1
    45   12   46 1
    46   13   47 1
    47   14   48 1
    48   16   49 1
    49   17   50 1
@<TRIPOS>MOLECULE
LIGAND
   50    49     0     0     0
SMALL
NO_CHARGES

@<TRIPOS>ATOM
      1 C1          7.7057   -5.3322    2.8533 C.2       1 <0>         0.0000
      2 C2          4.7609   -2.3304    1.0158 C.2       1 <0>         0.0000
      3 C3          1.4114   -2.9063    1.5049 C.2       1 <0>         0.0000
      4 C4          7.0285   -1.4411    4.2202 C.3       1 <0>         0.0000
      5 C5          8.3048    0.0740    2.6945 C.3       1 <0>         0.0000
      6 C6          3.1857   -3.8003   -1.8813 C.3       1 <0>         0.0000
      7 C7          1.9543   -5.3076   -0.3278 C.3       1 <0>         0.0000
      8 C8          0.7370   -3.4626   -1.4991 C.3       1 <0>         0.0000
      9 C9          0.8046   -4.1182    3.5770 C.3       1 <0>         0.0000
     10 C10         7.1850   -1.9548    1.7203 C.3       1 <0>         0.0000
     11 C11         6.3716   -4.2554    0.9948 C.3       1 <0>         0.0000
     12 C12         5.9953   -2.9363    1.6910 C.3       1 <0>         0.0000
     13 C13         2.4245   -2.8999    0.3599 C.3       1 <0>         0.0000
     14 C14         7.0962   -0.8603    2.8067 C.3       1 <0>         0.0000
     15 C15         2.0646   -3.8508   -0.8201 C.3       1 <0>         0.0000
     16 N1          1.6532   -3.9132    2.4277 N.am      1 <0>         0.0000
     17 N2          3.6959   -3.2182    0.9688 N.am      1 <0>         0.0000
     18 N3          7.5302   -4.8900    1.5637 N.am      1 <0>         0.0000
     19 O1          8.5809   -5.0641    0.6843 O.3       1 <0>         0.0000
     20 O2          6.8854   -5.2605    3.7635 O.2       1 <0>         0.0000
     21 O3          4.7482   -1.1914    0.5542 O.2       1 <0>         0.0000
     22 O4          0.4758   -2.1105    1.5728 O.2       1 <0>         0.0000
     23 H1          8.6962   -5.7866    3.0326 H         1 <0>         0.0000
     24 H2          7.9109   -2.0554    4.4301 H         1 <0>         0.0000
     25 H3          6.1416   -2.0705    4.3492 H         1 <0>         0.0000
     26 H4          7.0010   -0.6512    4.9764 H         1 <0>         0.0000
     27 H5          9.2434   -0.4691    2.8487 H         1 <0>         0.0000
     28 H6          8.3428    0.5443    1.7062 H         1 <0>         0.0000
     29 H7          8.2495    0.8738    3.4405 H         1 <0>         0.0000
     30 H8          3.3133   -2.7845   -2.2720 H         1 <0>         0.0000
     31 H9          2.9723   -4.4622   -2.7277 H         1 <0>         0.0000
     32 H10         4.1465   -4.1154   -1.4578 H         1 <0>         0.0000
     33 H11         1.1705   -5.4095    0.4319 H         1 <0>         0.0000
     34 H12         2.8879   -5.6535    0.1281 H         1 <0>         0.0000
     35 H13         1.7055   -5.9859   -1.1517 H         1 <0>         0.0000
     36 H14        -0.0909   -3.4848   -0.7807 H         1 <0>         0.0000
     37 H15         0.4812   -4.1517   -2.3109 H         1 <0>         0.0000
     38 H16         0.7762   -2.4505   -1.9146 H         1 <0>         0.0000
     39 H17         1.1692   -3.5298    4.4230 H         1 <0>         0.0000
     40 H18         0.7992   -5.1745    3.8593 H         1 <0>         0.0000
     41 H19        -0.2198   -3.8109    3.3501 H         1 <0>         0.0000
     42 H20         8.1124   -2.5237    1.8705 H         1 <0>         0.0000
     43 H21         7.2788   -1.4660    0.7417 H         1 <0>         0.0000
     44 H22         5.5455   -4.9716    1.0590 H         1 <0>         0.0000
     45 H23         6.5888   -4.0932   -0.0661 H         1 <0>         0.0000
     46 H24         5.7229   -3.1911    2.7220 H         1 <0>         0.0000
     47 H25         2.5279   -1.8729   -0.0129 H         1 <0>         0.0000
     48 H26         6.1964   -0.2560    2.6429 H         1 <0>         0.0000
     49 H27         2.4520   -4.5251    2.2903 H         1 <0>         0.0000
     50 H28         3.8157   -4.1378    1.3829 H         1 <0>         0.0000
@<TRIPOS>BOND
     1    1   18 am
     2    1   20 2
     3    2   12 1
     4    2   17 am
     5    2   21 2
     6    3   13 1
     7    3   16 am
     8    3   22 2
     9    4   14 1
    10    5   14 1
    11    6   15 1
    12    7   15 1
    13    8   15 1
    14    9   16 1
    15   10   12 1
    16   10   14 1
    17   11   12 1
    18   11   18 1
    19   13   15 1
    20   13   17 1
    21   18   19 1
    22    1   23 1
    23    4   24 1
    24    4   25 1
    25    4   26 1
    26    5   27 1
    27    5   28 1
    28    5   29 1
    29    6   30 1
    30    6   31 1
    31    6   32 1
    32    7   33 1
    33    7   34 1
    34    7   35 1
    35    8   36 1
    36    8   37 1
    37    8   38 1
    38    9   39 1
    39    9   40 1
    40    9   41 1
    41   10   42 1
    42   10   43 1
    43   11   44 1
    44   11   45 1
    45   12   46 1
    46   13   47 1
    47   14   48 1
    48   16   49 1
    49   17   50 1
@<TRIPOS>MOLECULE
LIGAND
   50    49     0     0     0
SMALL
NO_CHARGES

@<TRIPOS>ATOM
      1 C1          9.2625   -3.1581    0.7841 C.2       1 <0>         0.0000
      2 C2          4.7609   -2.3304    1.0158 C.2       1 <0>         0.0000
      3 C3          1.4114   -2.9063    1.5049 C.2       1 <0>         0.0000
      4 C4          5.5916   -1.8934    4.5978 C.3       1 <0>         0.0000
      5 C5          7.0929    0.0222    4.0244 C.3       1 <0>         0.0000
      6 C6          3.1857   -3.8003   -1.8813 C.3       1 <0>         0.0000
      7 C7          1.9543   -5.3076   -0.3278 C.3       1 <0>         0.0000
      8 C8          0.7370   -3.4626   -1.4991 C.3       1 <0>         0.0000
      9 C9          1.2375   -2.7208    3.9678 C.3       1 <0>         0.0000
     10 C10         6.8665   -1.8668    2.3816 C.3       1 <0>         0.0000
     11 C11         6.8055   -3.7427    0.6616 C.3       1 <0>         0.0000
     12 C12         5.9953   -2.9363    1.6910 C.3       1 <0>         0.0000
     13 C13         2.4245   -2.8999    0.3599 C.3       1 <0>         0.0000
     14 C14         6.1374   -1.0321    3.4575 C.3       1 <0>         0.0000
     15 C15         2.0646   -3.8508   -0.8201 C.3       1 <0>         0.0000
     16 N1          2.0048   -2.7245    2.7453 N.am      1 <0>         0.0000
     17 N2          3.6959   -3.2182    0.9688 N.am      1 <0>         0.0000
     18 N3          8.1738   -3.9534    1.0517 N.am      1 <0>         0.0000
     19 O1          8.3926   -5.1038    1.7841 O.3       1 <0>         0.0000
     20 O2          9.2554   -2.1063    0.1515 O.2       1 <0>         0.0000
     21 O3          4.7482   -1.1914    0.5542 O.2       1 <0>         0.0000
     22 O4          0.2060   -3.0776    1.3288 O.2       1 <0>         0.0000
     23 H1         10.2074   -3.5493    1.2010 H         1 <0>         0.0000
     24 H2          6.4006   -2.4456    5.0885 H         1 <0>         0.0000
     25 H3          4.8609   -2.6219    4.2310 H         1 <0>         0.0000
     26 H4          5.1097   -1.2817    5.3659 H         1 <0>         0.0000
     27 H5          7.9623   -0.4436    4.5008 H         1 <0>         0.0000
     28 H6          7.4545    0.6861    3.2321 H         1 <0>         0.0000
     29 H7          6.5886    0.6429    4.7727 H         1 <0>         0.0000
     30 H8          3.3133   -2.7845   -2.2720 H         1 <0>         0.0000
     31 H9          2.9723   -4.4622   -2.7277 H         1 <0>         0.0000
     32 H10         4.1465   -4.1154   -1.4578 H         1 <0>         0.0000
     33 H11         1.1705   -5.4095    0.4319 H         1 <0>         0.0000
     34 H12         2.8879   -5.6535    0.1281 H         1 <0>         0.0000
     35 H13         1.7055   -5.9859   -1.1517 H         1 <0>         0.0000
     36 H14        -0.0909   -3.4848   -0.7807 H         1 <0>         0.0000
     37 H15         0.4812   -4.1517   -2.3109 H         1 <0>         0.0000
     38 H16         0.7762   -2.4505   -1.9146 H         1 <0>         0.0000
     39 H17         0.9061   -1.7054    4.2003 H         1 <0>         0.0000
     40 H18         1.8462   -3.0909    4.7972 H         1 <0>         0.0000
     41 H19         0.3586   -3.3628    3.8643 H         1 <0>         0.0000
     42 H20         7.7322   -2.3581    2.8457 H         1 <0>         0.0000
     43 H21         7.2705   -1.1813    1.6250 H         1 <0>         0.0000
     44 H22         6.3563   -4.7298    0.5090 H         1 <0>         0.0000
     45 H23         6.8278   -3.2344   -0.3080 H         1 <0>         0.0000
     46 H24         5.6479   -3.6501    2.4472 H         1 <0>         0.0000
     47 H25         2.5279   -1.8729   -0.0129 H         1 <0>         0.0000
     48 H26         5.2955   -0.5008    2.9986 H         1 <0>         0.0000
     49 H27         3.0102   -2.5898    2.7949 H         1 <0>         0.0000
     50 H28         3.8157   -4.1378    1.3829 H         1 <0>         0.0000
@<TRIPOS>BOND
     1    1   18 am
     2    1   20 2
     3    2   12 1
     4    2   17 am
     5    2   21 2
     6    3   13 1
     7    3   16 am
     8    3   22 2
     9    4   14 1
    10    5   14 1
    11    6   15 1
    12    7   15 1
    13    8   15 1
    14    9   16 1
    15   10   12 1
    16   10   14 1
    17   11   12 1
    18   11   18 1
    19   13   15 1
    20   13   17 1
    21   18   19 1
    22    1   23 1
    23    4   24 1
    24    4   25 1
    25    4   26 1
    26    5   27 1
    27    5   28 1
    28    5   29 1
    29    6   30 1
    30    6   31 1
    31    6   32 1
    32    7   33 1
    33    7   34 1
    34    7   35 1
    35    8   36 1
    36    8   37 1
    37    8   38 1
    38    9   39 1
    39    9   40 1
    40    9   41 1
    41   10   42 1
    42   10   43 1
    43   11   44 1
    44   11   45 1
    45   12   46 1
    46   13   47 1
    47   14   48 1
    48   16   49 1
    49   17   50 1
@<TRIPOS>MOLECULE
LIGAND
   50    49     0     0     0
SMALL
NO_CHARGES

@<TRIPOS>ATOM
      1 C1          7.2660    0.1117    0.8899 C.2       1 <0>         0.0000
      2 C2          4.7609   -2.3304    1.0158 C.2       1 <0>         0.0000
      3 C3          1.6238   -2.1763    1.4428 C.2       1 <0>         0.0000
      4 C4          5.4286   -5.0551    3.9022 C.3       1 <0>         0.0000
      5 C5          5.1681   -3.1669    5.5205 C.3       1 <0>         0.0000
      6 C6          2.6382   -4.8237   -1.2732 C.3       1 <0>         0.0000
      7 C7          1.4139   -5.1834    0.8654 C.3       1 <0>         0.0000
      8 C8          0.3871   -3.7862   -0.9377 C.3       1 <0>         0.0000
      9 C9          0.0532   -0.2939    1.7895 C.3       1 <0>         0.0000
     10 C10         6.0212   -2.6662    3.2096 C.3       1 <0>         0.0000
     11 C11         7.2695   -2.4142    1.0053 C.3       1 <0>         0.0000
     12 C12         5.9953   -2.9363    1.6910 C.3       1 <0>         0.0000
     13 C13         2.4245   -2.8999    0.3599 C.3       1 <0>         0.0000
     14 C14         5.0884   -3.5706    4.0452 C.3       1 <0>         0.0000
     15 C15         1.7114   -4.1488   -0.2382 C.3       1 <0>         0.0000
     16 N1          0.8675   -1.1285    0.9389 N.am      1 <0>         0.0000
     17 N2          3.6959   -3.2182    0.9688 N.am      1 <0>         0.0000
     18 N3          7.6460   -1.0931    1.4316 N.am      1 <0>         0.0000
     19 O1          8.4943   -1.0600    2.5211 O.3       1 <0>         0.0000
     20 O2          6.5226    0.2725   -0.0735 O.2       1 <0>         0.0000
     21 O3          4.7482   -1.1914    0.5542 O.2       1 <0>         0.0000
     22 O4          1.6741   -2.4892    2.6314 O.2       1 <0>         0.0000
     23 H1          7.6993    0.9848    1.4091 H         1 <0>         0.0000
     24 H2          6.4596   -5.2491    4.2175 H         1 <0>         0.0000
     25 H3          5.3256   -5.3883    2.8641 H         1 <0>         0.0000
     26 H4          4.7804   -5.6761    4.5273 H         1 <0>         0.0000
     27 H5          6.1838   -3.2884    5.9121 H         1 <0>         0.0000
     28 H6          4.8754   -2.1200    5.6540 H         1 <0>         0.0000
     29 H7          4.4947   -3.7797    6.1290 H         1 <0>         0.0000
     30 H8          2.8872   -4.1345   -2.0879 H         1 <0>         0.0000
     31 H9          2.1738   -5.7124   -1.7140 H         1 <0>         0.0000
     32 H10         3.5794   -5.1449   -0.8119 H         1 <0>         0.0000
     33 H11         0.7565   -4.7621    1.6349 H         1 <0>         0.0000
     34 H12         2.3282   -5.5113    1.3711 H         1 <0>         0.0000
     35 H13         0.9158   -6.0685    0.4541 H         1 <0>         0.0000
     36 H14        -0.3050   -3.3025   -0.2384 H         1 <0>         0.0000
     37 H15        -0.1179   -4.6740   -1.3329 H         1 <0>         0.0000
     38 H16         0.5457   -3.0900   -1.7676 H         1 <0>         0.0000
     39 H17        -0.9522   -0.7139    1.8767 H         1 <0>         0.0000
     40 H18        -0.0213    0.7135    1.3710 H         1 <0>         0.0000
     41 H19         0.4945   -0.2269    2.7876 H         1 <0>         0.0000
     42 H20         7.0493   -2.7891    3.5757 H         1 <0>         0.0000
     43 H21         5.7503   -1.6191    3.3985 H         1 <0>         0.0000
     44 H22         8.1163   -3.0762    1.2156 H         1 <0>         0.0000
     45 H23         7.1431   -2.3718   -0.0816 H         1 <0>         0.0000
     46 H24         5.9704   -4.0198    1.5260 H         1 <0>         0.0000
     47 H25         2.6549   -2.1876   -0.4426 H         1 <0>         0.0000
     48 H26         4.0519   -3.4254    3.7195 H         1 <0>         0.0000
     49 H27         0.8872   -0.9429   -0.0594 H         1 <0>         0.0000
     50 H28         3.8157   -4.1378    1.3829 H         1 <0>         0.0000
@<TRIPOS>BOND
     1    1   18 am
     2    1   20 2
     3    2   12 1
     4    2   17 am
     5    2   21 2
     6    3   13 1
     7    3   16 am
     8    3   22 2
     9    4   14 1
    10    5   14 1
    11    6   15 1
    12    7   15 1
    13    8   15 1
    14    9   16 1
    15   10   12 1
    16   10   14 1
    17   11   12 1
    18   11   18 1
    19   13   15 1
    20   13   17 1
    21   18   19 1
    22    1   23 1
    23    4   24 1
    24    4   25 1
    25    4   26 1
    26    5   27 1
    27    5   28 1
    28    5   29 1
    29    6   30 1
    30    6   31 1
    31    6   32 1
    32    7   33 1
    33    7   34 1
    34    7   35 1
    35    8   36 1
    36    8   37 1
    37    8   38 1
    38    9   39 1
    39    9   40 1
    40    9   41 1
    41   10   42 1
    42   10   43 1
    43   11   44 1
    44   11   45 1
    45   12   46 1
    46   13   47 1
    47   14   48 1
    48   16   49 1
    49   17   50 1
@<TRIPOS>MOLECULE
LIGAND
   50    49     0     0     0
SMALL
NO_CHARGES

@<TRIPOS>ATOM
      1 C1          9.2881   -3.7695    1.7893 C.2       1 <0>         0.0000
      2 C2          4.7609   -2.3304    1.0158 C.2       1 <0>         0.0000
      3 C3          1.6238   -2.1763    1.4428 C.2       1 <0>         0.0000
      4 C4          4.8998   -3.3220    4.5808 C.3       1 <0>         0.0000
      5 C5          5.9126   -1.1117    5.1647 C.3       1 <0>         0.0000
      6 C6          2.1972   -4.3736   -1.6870 C.3       1 <0>         0.0000
      7 C7          2.0616   -5.4127    0.5721 C.3       1 <0>         0.0000
      8 C8          0.1787   -3.9917   -0.2602 C.3       1 <0>         0.0000
      9 C9          0.7109    0.0436    2.0502 C.3       1 <0>         0.0000
     10 C10         6.4405   -2.1272    2.9267 C.3       1 <0>         0.0000
     11 C11         7.1342   -3.0688    0.6654 C.3       1 <0>         0.0000
     12 C12         5.9953   -2.9363    1.6910 C.3       1 <0>         0.0000
     13 C13         2.4245   -2.8999    0.3599 C.3       1 <0>         0.0000
     14 C14         5.3645   -1.9750    4.0244 C.3       1 <0>         0.0000
     15 C15         1.7114   -4.1488   -0.2382 C.3       1 <0>         0.0000
     16 N1          1.4216   -0.8351    1.1525 N.am      1 <0>         0.0000
     17 N2          3.6959   -3.2182    0.9688 N.am      1 <0>         0.0000
     18 N3          8.1489   -4.0093    1.0586 N.am      1 <0>         0.0000
     19 O1          7.9264   -5.3055    0.6367 O.3       1 <0>         0.0000
     20 O2         10.1349   -4.5991    2.1075 O.2       1 <0>         0.0000
     21 O3          4.7482   -1.1914    0.5542 O.2       1 <0>         0.0000
     22 O4          1.2284   -2.7340    2.4655 O.2       1 <0>         0.0000
     23 H1          9.4029   -2.7139    2.0932 H         1 <0>         0.0000
     24 H2          5.7423   -3.8772    5.0075 H         1 <0>         0.0000
     25 H3          4.4501   -3.9417    3.7978 H         1 <0>         0.0000
     26 H4          4.1642   -3.1925    5.3800 H         1 <0>         0.0000
     27 H5          6.7922   -1.5734    5.6261 H         1 <0>         0.0000
     28 H6          6.2016   -0.1209    4.7985 H         1 <0>         0.0000
     29 H7          5.1564   -0.9697    5.9440 H         1 <0>         0.0000
     30 H8          1.9755   -3.5045   -2.3165 H         1 <0>         0.0000
     31 H9          1.7217   -5.2491   -2.1424 H         1 <0>         0.0000
     32 H10         3.2803   -4.5391   -1.7204 H         1 <0>         0.0000
     33 H11         1.7403   -5.3146    1.6156 H         1 <0>         0.0000
     34 H12         3.1406   -5.5993    0.5864 H         1 <0>         0.0000
     35 H13         1.5681   -6.2984    0.1566 H         1 <0>         0.0000
     36 H14        -0.2125   -3.8293    0.7511 H         1 <0>         0.0000
     37 H15        -0.3138   -4.8846   -0.6595 H         1 <0>         0.0000
     38 H16        -0.1312   -3.1347   -0.8670 H         1 <0>         0.0000
     39 H17        -0.3565    0.0379    1.8148 H         1 <0>         0.0000
     40 H18         1.0868    1.0659    1.9547 H         1 <0>         0.0000
     41 H19         0.8449   -0.2838    3.0846 H         1 <0>         0.0000
     42 H20         7.3251   -2.6069    3.3666 H         1 <0>         0.0000
     43 H21         6.7588   -1.1249    2.6110 H         1 <0>         0.0000
     44 H22         6.7419   -3.4007   -0.3017 H         1 <0>         0.0000
     45 H23         7.6368   -2.1087    0.5083 H         1 <0>         0.0000
     46 H24         5.7385   -3.9535    2.0094 H         1 <0>         0.0000
     47 H25         2.6549   -2.1876   -0.4426 H         1 <0>         0.0000
     48 H26         4.4913   -1.4577    3.6101 H         1 <0>         0.0000
     49 H27         1.7849   -0.4599    0.2815 H         1 <0>         0.0000
     50 H28         3.8157   -4.1378    1.3829 H         1 <0>         0.0000
@<TRIPOS>BOND
     1    1   18 am
     2    1   20 2
     3    2   12 1
     4    2   17 am
     5    2   21 2
     6    3   13 1
     7    3   16 am
     8    3   22 2
     9    4   14 1
    10    5   14 1
    11    6   15 1
    12    7   15 1
    13    8   15 1
    14    9   16 1
    15   10   12 1
    16   10   14 1
    17   11   12 1
    18   11   18 1
    19   13   15 1
    20   13   17 1
    21   18   19 1
    22    1   23 1
    23    4   24 1
    24    4   25 1
    25    4   26 1
    26    5   27 1
    27    5   28 1
    28    5   29 1
    29    6   30 1
    30    6   31 1
    31    6   32 1
    32    7   33 1
    33    7   34 1
    34    7   35 1
    35    8   36 1
    36    8   37 1
    37    8   38 1
    38    9   39 1
    39    9   40 1
    40    9   41 1
    41   10   42 1
    42   10   43 1
    43   11   44 1
    44   11   45 1
    45   12   46 1
    46   13   47 1
    47   14   48 1
    48   16   49 1
    49   17   50 1
@<TRIPOS>MOLECULE
LIGAND
   50    49     0     0     0
SMALL
NO_CHARGES

@<TRIPOS>ATOM
      1 C1          4.1712   -1.7701    4.5874 C.2       1 <0>         0.0000
      2 C2          4.7609   -2.3304    1.0158 C.2       1 <0>         0.0000
      3 C3          1.4114   -2.9063    1.5049 C.2       1 <0>         0.0000
      4 C4          7.9668   -2.9805   -0.7195 C.3       1 <0>         0.0000
      5 C5          7.2752   -5.3485   -1.1277 C.3       1 <0>         0.0000
      6 C6          2.6765   -3.3019   -2.1277 C.3       1 <0>         0.0000
      7 C7          2.6544   -5.2554   -0.5834 C.3       1 <0>         0.0000
      8 C8          0.5425   -3.9869   -1.0173 C.3       1 <0>         0.0000
      9 C9          0.8046   -4.1182    3.5770 C.3       1 <0>         0.0000
     10 C10         6.4903   -4.2069    0.9698 C.3       1 <0>         0.0000
     11 C11         5.6912   -3.2135    3.1734 C.3       1 <0>         0.0000
     12 C12         5.9953   -2.9363    1.6910 C.3       1 <0>         0.0000
     13 C13         2.4245   -2.8999    0.3599 C.3       1 <0>         0.0000
     14 C14         6.8518   -4.0083   -0.5189 C.3       1 <0>         0.0000
     15 C15         2.0646   -3.8508   -0.8201 C.3       1 <0>         0.0000
     16 N1          1.6532   -3.9132    2.4277 N.am      1 <0>         0.0000
     17 N2          3.6959   -3.2182    0.9688 N.am      1 <0>         0.0000
     18 N3          5.3407   -2.0316    3.9142 N.am      1 <0>         0.0000
     19 O1          6.3174   -1.0552    3.9355 O.3       1 <0>         0.0000
     20 O2          3.2011   -2.5170    4.6749 O.2       1 <0>         0.0000
     21 O3          4.7482   -1.1914    0.5542 O.2       1 <0>         0.0000
     22 O4          0.4758   -2.1105    1.5728 O.2       1 <0>         0.0000
     23 H1          4.1565   -0.7806    5.0777 H         1 <0>         0.0000
     24 H2          8.8753   -3.2848   -0.1883 H         1 <0>         0.0000
     25 H3          7.6713   -1.9951   -0.3441 H         1 <0>         0.0000
     26 H4          8.2323   -2.8793   -1.7758 H         1 <0>         0.0000
     27 H5          8.1599   -5.7527   -0.6240 H         1 <0>         0.0000
     28 H6          6.4698   -6.0859   -1.0440 H         1 <0>         0.0000
     29 H7          7.5125   -5.2358   -2.1909 H         1 <0>         0.0000
     30 H8          2.2940   -2.2998   -2.3517 H         1 <0>         0.0000
     31 H9          2.4502   -3.9477   -2.9831 H         1 <0>         0.0000
     32 H10         3.7681   -3.2311   -2.0551 H         1 <0>         0.0000
     33 H11         2.2564   -5.7011    0.3358 H         1 <0>         0.0000
     34 H12         3.7440   -5.2254   -0.4780 H         1 <0>         0.0000
     35 H13         2.4105   -5.9315   -1.4105 H         1 <0>         0.0000
     36 H14         0.0636   -4.3749   -0.1106 H         1 <0>         0.0000
     37 H15         0.3004   -4.6763   -1.8330 H         1 <0>         0.0000
     38 H16         0.0759   -3.0219   -1.2405 H         1 <0>         0.0000
     39 H17         1.1692   -3.5298    4.4230 H         1 <0>         0.0000
     40 H18         0.7992   -5.1745    3.8593 H         1 <0>         0.0000
     41 H19        -0.2198   -3.8109    3.3501 H         1 <0>         0.0000
     42 H20         7.3727   -4.5944    1.4964 H         1 <0>         0.0000
     43 H21         5.7222   -4.9884    1.0394 H         1 <0>         0.0000
     44 H22         4.8556   -3.9151    3.2682 H         1 <0>         0.0000
     45 H23         6.5563   -3.6574    3.6769 H         1 <0>         0.0000
     46 H24         6.7931   -2.1847    1.6686 H         1 <0>         0.0000
     47 H25         2.5279   -1.8729   -0.0129 H         1 <0>         0.0000
     48 H26         5.9671   -3.6628   -1.0661 H         1 <0>         0.0000
     49 H27         2.4520   -4.5251    2.2903 H         1 <0>         0.0000
     50 H28         3.8157   -4.1378    1.3829 H         1 <0>         0.0000
@<TRIPOS>BOND
     1    1   18 am
     2    1   20 2
     3    2   12 1
     4    2   17 am
     5    2   21 2
     6    3   13 1
     7    3   16 am
     8    3   22 2
     9    4   14 1
    10    5   14 1
    11    6   15 1
    12    7   15 1
    13    8   15 1
    14    9   16 1
    15   10   12 1
    16   10   14 1
    17   11   12 1
    18   11   18 1
    19   13   15 1
    20   13   17 1
    21   18   19 1
    22    1   23 1
    23    4   24 1
    24    4   25 1
    25    4   26 1
    26    5   27 1
    27    5   28 1
    28    5   29 1
    29    6   30 1
    30    6   31 1
    31    6   32 1
    32    7   33 1
    33    7   34 1
    34    7   35 1
    35    8   36 1
    36    8   37 1
    37    8   38 1
    38    9   39 1
    39    9   40 1
    40    9   41 1
    41   10   42 1
    42   10   43 1
    43   11   44 1
    44   11   45 1
    45   12   46 1
    46   13   47 1
    47   14   48 1
    48   16   49 1
    49   17   50 1
@<TRIPOS>MOLECULE
LIGAND
   50    49     0     0     0
SMALL
NO_CHARGES

@<TRIPOS>ATOM
      1 C1          8.8786   -4.2413    1.6879 C.2       1 <0>         0.0000
      2 C2          4.7609   -2.3304    1.0158 C.2       1 <0>         0.0000
      3 C3          1.3743   -3.6105    1.2141 C.2       1 <0>         0.0000
      4 C4          5.4286   -5.0551    3.9022 C.3       1 <0>         0.0000
      5 C5          5.1681   -3.1669    5.5205 C.3       1 <0>         0.0000
      6 C6          3.5112   -2.5312   -1.8976 C.3       1 <0>         0.0000
      7 C7          2.5798   -4.7765   -1.3563 C.3       1 <0>         0.0000
      8 C8          1.0336   -2.8618   -1.8044 C.3       1 <0>         0.0000
      9 C9          0.0942   -3.3985    3.3229 C.3       1 <0>         0.0000
     10 C10         6.0212   -2.6662    3.2096 C.3       1 <0>         0.0000
     11 C11         7.2695   -2.4142    1.0053 C.3       1 <0>         0.0000
     12 C12         5.9953   -2.9363    1.6910 C.3       1 <0>         0.0000
     13 C13         2.4245   -2.8999    0.3599 C.3       1 <0>         0.0000
     14 C14         5.0884   -3.5706    4.0452 C.3       1 <0>         0.0000
     15 C15         2.3718   -3.2623   -1.1540 C.3       1 <0>         0.0000
     16 N1          1.0472   -2.9007    2.3600 N.am      1 <0>         0.0000
     17 N2          3.6959   -3.2182    0.9688 N.am      1 <0>         0.0000
     18 N3          8.4808   -2.9296    1.5848 N.am      1 <0>         0.0000
     19 O1          9.3307   -1.9667    2.0928 O.3       1 <0>         0.0000
     20 O2          8.2549   -5.2224    1.2943 O.2       1 <0>         0.0000
     21 O3          4.7482   -1.1914    0.5542 O.2       1 <0>         0.0000
     22 O4          0.8978   -4.7040    0.9134 O.2       1 <0>         0.0000
     23 H1          9.8596   -4.3672    2.1794 H         1 <0>         0.0000
     24 H2          6.4596   -5.2491    4.2175 H         1 <0>         0.0000
     25 H3          5.3256   -5.3883    2.8641 H         1 <0>         0.0000
     26 H4          4.7804   -5.6761    4.5273 H         1 <0>         0.0000
     27 H5          6.1838   -3.2884    5.9121 H         1 <0>         0.0000
     28 H6          4.8754   -2.1200    5.6540 H         1 <0>         0.0000
     29 H7          4.4947   -3.7797    6.1290 H         1 <0>         0.0000
     30 H8          3.4182   -1.4447   -1.7906 H         1 <0>         0.0000
     31 H9          3.5120   -2.7653   -2.9677 H         1 <0>         0.0000
     32 H10         4.4918   -2.8203   -1.5020 H         1 <0>         0.0000
     33 H11         1.7979   -5.3538   -0.8491 H         1 <0>         0.0000
     34 H12         3.5395   -5.1121   -0.9494 H         1 <0>         0.0000
     35 H13         2.5489   -5.0416   -2.4191 H         1 <0>         0.0000
     36 H14         0.1926   -3.3589   -1.3070 H         1 <0>         0.0000
     37 H15         0.9978   -3.1431   -2.8622 H         1 <0>         0.0000
     38 H16         0.8573   -1.7835   -1.7352 H         1 <0>         0.0000
     39 H17        -0.9122   -3.0580    3.0659 H         1 <0>         0.0000
     40 H18         0.3436   -3.0358    4.3238 H         1 <0>         0.0000
     41 H19         0.1039   -4.4917    3.3338 H         1 <0>         0.0000
     42 H20         7.0493   -2.7891    3.5757 H         1 <0>         0.0000
     43 H21         5.7503   -1.6191    3.3985 H         1 <0>         0.0000
     44 H22         7.2745   -2.6901   -0.0546 H         1 <0>         0.0000
     45 H23         7.3301   -1.3226    1.0647 H         1 <0>         0.0000
     46 H24         5.9704   -4.0198    1.5260 H         1 <0>         0.0000
     47 H25         2.3043   -1.8161    0.4837 H         1 <0>         0.0000
     48 H26         4.0519   -3.4254    3.7195 H         1 <0>         0.0000
     49 H27         1.4921   -2.0031    2.5267 H         1 <0>         0.0000
     50 H28         3.8157   -4.1378    1.3829 H         1 <0>         0.0000
@<TRIPOS>BOND
     1    1   18 am
     2    1   20 2
     3    2   12 1
     4    2   17 am
     5    2   21 2
     6    3   13 1
     7    3   16 am
     8    3   22 2
     9    4   14 1
    10    5   14 1
    11    6   15 1
    12    7   15 1
    13    8   15 1
    14    9   16 1
    15   10   12 1
    16   10   14 1
    17   11   12 1
    18   11   18 1
    19   13   15 1
    20   13   17 1
    21   18   19 1
    22    1   23 1
    23    4   24 1
    24    4   25 1
    25    4   26 1
    26    5   27 1
    27    5   28 1
    28    5   29 1
    29    6   30 1
    30    6   31 1
    31    6   32 1
    32    7   33 1
    33    7   34 1
    34    7   35 1
    35    8   36 1
    36    8   37 1
    37    8   38 1
    38    9   39 1
    39    9   40 1
    40    9   41 1
    41   10   42 1
    42   10   43 1
    43   11   44 1
    44   11   45 1
    45   12   46 1
    46   13   47 1
    47   14   48 1
    48   16   49 1
    49   17   50 1
@<TRIPOS>MOLECULE
LIGAND
   50    49     0     0     0
SMALL
NO_CHARGES

@<TRIPOS>ATOM
      1 C1          8.4401   -2.2571   -0.5690 C.2       1 <0>         0.0000
      2 C2          4.7609   -2.3304    1.0158 C.2       1 <0>         0.0000
      3 C3          1.9548   -1.6162    1.0446 C.2       1 <0>         0.0000
      4 C4          6.2068   -2.5045    4.7682 C.3       1 <0>         0.0000
      5 C5          7.2536   -0.2835    4.2952 C.3       1 <0>         0.0000
      6 C6          2.0155   -5.3270   -0.2360 C.3       1 <0>         0.0000
      7 C7          1.1035   -4.4371    1.9036 C.3       1 <0>         0.0000
      8 C8          0.0778   -3.7458   -0.2707 C.3       1 <0>         0.0000
      9 C9          1.8710   -0.4888    3.2474 C.3       1 <0>         0.0000
     10 C10         6.8665   -1.8668    2.3816 C.3       1 <0>         0.0000
     11 C11         6.8055   -3.7427    0.6616 C.3       1 <0>         0.0000
     12 C12         5.9953   -2.9363    1.6910 C.3       1 <0>         0.0000
     13 C13         2.4245   -2.8999    0.3599 C.3       1 <0>         0.0000
     14 C14         6.3308   -1.3748    3.7443 C.3       1 <0>         0.0000
     15 C15         1.4067   -4.0765    0.4357 C.3       1 <0>         0.0000
     16 N1          2.2464   -1.5955    2.4005 N.am      1 <0>         0.0000
     17 N2          3.6959   -3.2182    0.9688 N.am      1 <0>         0.0000
     18 N3          7.2606   -2.9528   -0.4510 N.am      1 <0>         0.0000
     19 O1          6.3854   -2.9043   -1.5183 O.3       1 <0>         0.0000
     20 O2          9.3298   -2.1878    0.2738 O.2       1 <0>         0.0000
     21 O3          4.7482   -1.1914    0.5542 O.2       1 <0>         0.0000
     22 O4          1.3637   -0.7184    0.4464 O.2       1 <0>         0.0000
     23 H1          8.5459   -1.7288   -1.5330 H         1 <0>         0.0000
     24 H2          7.1779   -2.9820    4.9387 H         1 <0>         0.0000
     25 H3          5.5078   -3.2753    4.4268 H         1 <0>         0.0000
     26 H4          5.8592   -2.1311    5.7358 H         1 <0>         0.0000
     27 H5          8.2679   -0.6642    4.4570 H         1 <0>         0.0000
     28 H6          7.3145    0.5617    3.6015 H         1 <0>         0.0000
     29 H7          6.8785    0.0981    5.2508 H         1 <0>         0.0000
     30 H8          2.2541   -5.1329   -1.2877 H         1 <0>         0.0000
     31 H9          1.3305   -6.1810   -0.1982 H         1 <0>         0.0000
     32 H10         2.9425   -5.6329    0.2628 H         1 <0>         0.0000
     33 H11         0.6668   -3.5850    2.4375 H         1 <0>         0.0000
     34 H12         2.0104   -4.7234    2.4466 H         1 <0>         0.0000
     35 H13         0.3913   -5.2673    1.9681 H         1 <0>         0.0000
     36 H14        -0.3923   -2.8611    0.1746 H         1 <0>         0.0000
     37 H15        -0.6390   -4.5698   -0.1902 H         1 <0>         0.0000
     38 H16         0.2276   -3.5306   -1.3336 H         1 <0>         0.0000
     39 H17         2.6703    0.2566    3.2680 H         1 <0>         0.0000
     40 H18         1.6893   -0.8381    4.2675 H         1 <0>         0.0000
     41 H19         0.9594   -0.0170    2.8710 H         1 <0>         0.0000
     42 H20         7.8774   -2.2707    2.5271 H         1 <0>         0.0000
     43 H21         6.9742   -0.9994    1.7170 H         1 <0>         0.0000
     44 H22         7.6920   -4.1821    1.1312 H         1 <0>         0.0000
     45 H23         6.2097   -4.5617    0.2452 H         1 <0>         0.0000
     46 H24         5.6479   -3.6501    2.4472 H         1 <0>         0.0000
     47 H25         2.6512   -2.6760   -0.6903 H         1 <0>         0.0000
     48 H26         5.3389   -0.9289    3.6068 H         1 <0>         0.0000
     49 H27         2.7394   -2.3834    2.8099 H         1 <0>         0.0000
     50 H28         3.8157   -4.1378    1.3829 H         1 <0>         0.0000
@<TRIPOS>BOND
     1    1   18 am
     2    1   20 2
     3    2   12 1
     4    2   17 am
     5    2   21 2
     6    3   13 1
     7    3   16 am
     8    3   22 2
     9    4   14 1
    10    5   14 1
    11    6   15 1
    12    7   15 1
    13    8   15 1
    14    9   16 1
    15   10   12 1
    16   10   14 1
    17   11   12 1
    18   11   18 1
    19   13   15 1
    20   13   17 1
    21   18   19 1
    22    1   23 1
    23    4   24 1
    24    4   25 1
    25    4   26 1
    26    5   27 1
    27    5   28 1
    28    5   29 1
    29    6   30 1
    30    6   31 1
    31    6   32 1
    32    7   33 1
    33    7   34 1
    34    7   35 1
    35    8   36 1
    36    8   37 1
    37    8   38 1
    38    9   39 1
    39    9   40 1
    40    9   41 1
    41   10   42 1
    42   10   43 1
    43   11   44 1
    44   11   45 1
    45   12   46 1
    46   13   47 1
    47   14   48 1
    48   16   49 1
    49   17   50 1
@<TRIPOS>MOLECULE
LIGAND
   50    49     0     0     0
SMALL
NO_CHARGES

@<TRIPOS>ATOM
      1 C1          6.8953   -4.2650   -1.5494 C.2       1 <0>         0.0000
      2 C2          4.7609   -2.3304    1.0158 C.2       1 <0>         0.0000
      3 C3          1.4114   -2.9063    1.5049 C.2       1 <0>         0.0000
      4 C4          4.8998   -3.3220    4.5808 C.3       1 <0>         0.0000
      5 C5          5.9126   -1.1117    5.1647 C.3       1 <0>         0.0000
      6 C6          3.1857   -3.8003   -1.8813 C.3       1 <0>         0.0000
      7 C7          1.9543   -5.3076   -0.3278 C.3       1 <0>         0.0000
      8 C8          0.7370   -3.4626   -1.4991 C.3       1 <0>         0.0000
      9 C9          0.8046   -4.1182    3.5770 C.3       1 <0>         0.0000
     10 C10         6.4405   -2.1272    2.9267 C.3       1 <0>         0.0000
     11 C11         7.1342   -3.0688    0.6654 C.3       1 <0>         0.0000
     12 C12         5.9953   -2.9363    1.6910 C.3       1 <0>         0.0000
     13 C13         2.4245   -2.8999    0.3599 C.3       1 <0>         0.0000
     14 C14         5.3645   -1.9750    4.0244 C.3       1 <0>         0.0000
     15 C15         2.0646   -3.8508   -0.8201 C.3       1 <0>         0.0000
     16 N1          1.6532   -3.9132    2.4277 N.am      1 <0>         0.0000
     17 N2          3.6959   -3.2182    0.9688 N.am      1 <0>         0.0000
     18 N3          7.0083   -4.2255   -0.1801 N.am      1 <0>         0.0000
     19 O1          7.0029   -5.4319    0.4925 O.3       1 <0>         0.0000
     20 O2          6.7892   -5.2738   -2.2405 O.2       1 <0>         0.0000
     21 O3          4.7482   -1.1914    0.5542 O.2       1 <0>         0.0000
     22 O4          0.4758   -2.1105    1.5728 O.2       1 <0>         0.0000
     23 H1          6.9064   -3.2668   -2.0216 H         1 <0>         0.0000
     24 H2          5.7423   -3.8772    5.0075 H         1 <0>         0.0000
     25 H3          4.4501   -3.9417    3.7978 H         1 <0>         0.0000
     26 H4          4.1642   -3.1925    5.3800 H         1 <0>         0.0000
     27 H5          6.7922   -1.5734    5.6261 H         1 <0>         0.0000
     28 H6          6.2016   -0.1209    4.7985 H         1 <0>         0.0000
     29 H7          5.1564   -0.9697    5.9440 H         1 <0>         0.0000
     30 H8          3.3133   -2.7845   -2.2720 H         1 <0>         0.0000
     31 H9          2.9723   -4.4622   -2.7277 H         1 <0>         0.0000
     32 H10         4.1465   -4.1154   -1.4578 H         1 <0>         0.0000
     33 H11         1.1705   -5.4095    0.4319 H         1 <0>         0.0000
     34 H12         2.8879   -5.6535    0.1281 H         1 <0>         0.0000
     35 H13         1.7055   -5.9859   -1.1517 H         1 <0>         0.0000
     36 H14        -0.0909   -3.4848   -0.7807 H         1 <0>         0.0000
     37 H15         0.4812   -4.1517   -2.3109 H         1 <0>         0.0000
     38 H16         0.7762   -2.4505   -1.9146 H         1 <0>         0.0000
     39 H17         1.1692   -3.5298    4.4230 H         1 <0>         0.0000
     40 H18         0.7992   -5.1745    3.8593 H         1 <0>         0.0000
     41 H19        -0.2198   -3.8109    3.3501 H         1 <0>         0.0000
     42 H20         7.3251   -2.6069    3.3666 H         1 <0>         0.0000
     43 H21         6.7588   -1.1249    2.6110 H         1 <0>         0.0000
     44 H22         7.1645   -2.1910    0.0112 H         1 <0>         0.0000
     45 H23         8.1063   -3.1455    1.1636 H         1 <0>         0.0000
     46 H24         5.7385   -3.9535    2.0094 H         1 <0>         0.0000
     47 H25         2.5279   -1.8729   -0.0129 H         1 <0>         0.0000
     48 H26         4.4913   -1.4577    3.6101 H         1 <0>         0.0000
     49 H27         2.4520   -4.5251    2.2903 H         1 <0>         0.0000
     50 H28         3.8157   -4.1378    1.3829 H         1 <0>         0.0000
@<TRIPOS>BOND
     1    1   18 am
     2    1   20 2
     3    2   12 1
     4    2   17 am
     5    2   21 2
     6    3   13 1
     7    3   16 am
     8    3   22 2
     9    4   14 1
    10    5   14 1
    11    6   15 1
    12    7   15 1
    13    8   15 1
    14    9   16 1
    15   10   12 1
    16   10   14 1
    17   11   12 1
    18   11   18 1
    19   13   15 1
    20   13   17 1
    21   18   19 1
    22    1   23 1
    23    4   24 1
    24    4   25 1
    25    4   26 1
    26    5   27 1
    27    5   28 1
    28    5   29 1
    29    6   30 1
    30    6   31 1
    31    6   32 1
    32    7   33 1
    33    7   34 1
    34    7   35 1
    35    8   36 1
    36    8   37 1
    37    8   38 1
    38    9   39 1
    39    9   40 1
    40    9   41 1
    41   10   42 1
    42   10   43 1
    43   11   44 1
    44   11   45 1
    45   12   46 1
    46   13   47 1
    47   14   48 1
    48   16   49 1
    49   17   50 1
@<TRIPOS>MOLECULE
LIGAND
   50    49     0     0     0
SMALL
NO_CHARGES

@<TRIPOS>ATOM
      1 C1          8.7185   -5.1949    0.9438 C.2       1 <0>         0.0000
      2 C2          4.7609   -2.3304    1.0158 C.2       1 <0>         0.0000
      3 C3          1.3743   -3.6105    1.2141 C.2       1 <0>         0.0000
      4 C4          7.0285   -1.4411    4.2202 C.3       1 <0>         0.0000
      5 C5          8.3048    0.0740    2.6945 C.3       1 <0>         0.0000
      6 C6          3.5112   -2.5312   -1.8976 C.3       1 <0>         0.0000
      7 C7          2.5798   -4.7765   -1.3563 C.3       1 <0>         0.0000
      8 C8          1.0336   -2.8618   -1.8044 C.3       1 <0>         0.0000
      9 C9          0.6347   -3.9155    3.5573 C.3       1 <0>         0.0000
     10 C10         7.1850   -1.9548    1.7203 C.3       1 <0>         0.0000
     11 C11         6.3716   -4.2554    0.9948 C.3       1 <0>         0.0000
     12 C12         5.9953   -2.9363    1.6910 C.3       1 <0>         0.0000
     13 C13         2.4245   -2.8999    0.3599 C.3       1 <0>         0.0000
     14 C14         7.0962   -0.8603    2.8067 C.3       1 <0>         0.0000
     15 C15         2.3718   -3.2623   -1.1540 C.3       1 <0>         0.0000
     16 N1          1.5064   -3.3313    2.5663 N.am      1 <0>         0.0000
     17 N2          3.6959   -3.2182    0.9688 N.am      1 <0>         0.0000
     18 N3          7.5302   -4.8900    1.5637 N.am      1 <0>         0.0000
     19 O1          7.4064   -5.2237    2.8983 O.3       1 <0>         0.0000
     20 O2          9.0034   -4.9733   -0.2294 O.2       1 <0>         0.0000
     21 O3          4.7482   -1.1914    0.5542 O.2       1 <0>         0.0000
     22 O4          0.5249   -4.3627    0.7389 O.2       1 <0>         0.0000
     23 H1          9.4507   -5.6841    1.6104 H         1 <0>         0.0000
     24 H2          7.9109   -2.0554    4.4301 H         1 <0>         0.0000
     25 H3          6.1416   -2.0705    4.3492 H         1 <0>         0.0000
     26 H4          7.0010   -0.6512    4.9764 H         1 <0>         0.0000
     27 H5          9.2434   -0.4691    2.8487 H         1 <0>         0.0000
     28 H6          8.3428    0.5443    1.7062 H         1 <0>         0.0000
     29 H7          8.2495    0.8738    3.4405 H         1 <0>         0.0000
     30 H8          3.4182   -1.4447   -1.7906 H         1 <0>         0.0000
     31 H9          3.5120   -2.7653   -2.9677 H         1 <0>         0.0000
     32 H10         4.4918   -2.8203   -1.5020 H         1 <0>         0.0000
     33 H11         1.7979   -5.3538   -0.8491 H         1 <0>         0.0000
     34 H12         3.5395   -5.1121   -0.9494 H         1 <0>         0.0000
     35 H13         2.5489   -5.0416   -2.4191 H         1 <0>         0.0000
     36 H14         0.1926   -3.3589   -1.3070 H         1 <0>         0.0000
     37 H15         0.9978   -3.1431   -2.8622 H         1 <0>         0.0000
     38 H16         0.8573   -1.7835   -1.7352 H         1 <0>         0.0000
     39 H17        -0.2373   -3.2755    3.7147 H         1 <0>         0.0000
     40 H18         1.1644   -4.0284    4.5071 H         1 <0>         0.0000
     41 H19         0.2935   -4.9003    3.2271 H         1 <0>         0.0000
     42 H20         8.1124   -2.5237    1.8705 H         1 <0>         0.0000
     43 H21         7.2788   -1.4660    0.7417 H         1 <0>         0.0000
     44 H22         5.5455   -4.9716    1.0590 H         1 <0>         0.0000
     45 H23         6.5888   -4.0932   -0.0661 H         1 <0>         0.0000
     46 H24         5.7229   -3.1911    2.7220 H         1 <0>         0.0000
     47 H25         2.3043   -1.8161    0.4837 H         1 <0>         0.0000
     48 H26         6.1964   -0.2560    2.6429 H         1 <0>         0.0000
     49 H27         2.2391   -2.6962    2.8684 H         1 <0>         0.0000
     50 H28         3.8157   -4.1378    1.3829 H         1 <0>         0.0000
@<TRIPOS>BOND
     1    1   18 am
     2    1   20 2
     3    2   12 1
     4    2   17 am
     5    2   21 2
     6    3   13 1
     7    3   16 am
     8    3   22 2
     9    4   14 1
    10    5   14 1
    11    6   15 1
    12    7   15 1
    13    8   15 1
    14    9   16 1
    15   10   12 1
    16   10   14 1
    17   11   12 1
    18   11   18 1
    19   13   15 1
    20   13   17 1
    21   18   19 1
    22    1   23 1
    23    4   24 1
    24    4   25 1
    25    4   26 1
    26    5   27 1
    27    5   28 1
    28    5   29 1
    29    6   30 1
    30    6   31 1
    31    6   32 1
    32    7   33 1
    33    7   34 1
    34    7   35 1
    35    8   36 1
    36    8   37 1
    37    8   38 1
    38    9   39 1
    39    9   40 1
    40    9   41 1
    41   10   42 1
    42   10   43 1
    43   11   44 1
    44   11   45 1
    45   12   46 1
    46   13   47 1
    47   14   48 1
    48   16   49 1
    49   17   50 1
@<TRIPOS>MOLECULE
LIGAND
   50    49     0     0     0
SMALL
NO_CHARGES

@<TRIPOS>ATOM
      1 C1          9.2970   -4.1372    0.8354 C.2       1 <0>         0.0000
      2 C2          4.7609   -2.3304    1.0158 C.2       1 <0>         0.0000
      3 C3          1.3743   -3.6105    1.2141 C.2       1 <0>         0.0000
      4 C4          5.5916   -1.8934    4.5978 C.3       1 <0>         0.0000
      5 C5          7.0929    0.0222    4.0244 C.3       1 <0>         0.0000
      6 C6          3.5112   -2.5312   -1.8976 C.3       1 <0>         0.0000
      7 C7          2.5798   -4.7765   -1.3563 C.3       1 <0>         0.0000
      8 C8          1.0336   -2.8618   -1.8044 C.3       1 <0>         0.0000
      9 C9          0.0942   -3.3985    3.3229 C.3       1 <0>         0.0000
     10 C10         6.8665   -1.8668    2.3816 C.3       1 <0>         0.0000
     11 C11         6.8055   -3.7427    0.6616 C.3       1 <0>         0.0000
     12 C12         5.9953   -2.9363    1.6910 C.3       1 <0>         0.0000
     13 C13         2.4245   -2.8999    0.3599 C.3       1 <0>         0.0000
     14 C14         6.1374   -1.0321    3.4575 C.3       1 <0>         0.0000
     15 C15         2.3718   -3.2623   -1.1540 C.3       1 <0>         0.0000
     16 N1          1.0472   -2.9007    2.3600 N.am      1 <0>         0.0000
     17 N2          3.6959   -3.2182    0.9688 N.am      1 <0>         0.0000
     18 N3          7.9912   -4.3422    1.2125 N.am      1 <0>         0.0000
     19 O1          7.7606   -5.2290    2.2460 O.3       1 <0>         0.0000
     20 O2         10.2874   -4.6678    1.3295 O.2       1 <0>         0.0000
     21 O3          4.7482   -1.1914    0.5542 O.2       1 <0>         0.0000
     22 O4          0.8978   -4.7040    0.9134 O.2       1 <0>         0.0000
     23 H1          9.4083   -3.4178    0.0049 H         1 <0>         0.0000
     24 H2          6.4006   -2.4456    5.0885 H         1 <0>         0.0000
     25 H3          4.8609   -2.6219    4.2310 H         1 <0>         0.0000
     26 H4          5.1097   -1.2817    5.3659 H         1 <0>         0.0000
     27 H5          7.9623   -0.4436    4.5008 H         1 <0>         0.0000
     28 H6          7.4545    0.6861    3.2321 H         1 <0>         0.0000
     29 H7          6.5886    0.6429    4.7727 H         1 <0>         0.0000
     30 H8          3.4182   -1.4447   -1.7906 H         1 <0>         0.0000
     31 H9          3.5120   -2.7653   -2.9677 H         1 <0>         0.0000
     32 H10         4.4918   -2.8203   -1.5020 H         1 <0>         0.0000
     33 H11         1.7979   -5.3538   -0.8491 H         1 <0>         0.0000
     34 H12         3.5395   -5.1121   -0.9494 H         1 <0>         0.0000
     35 H13         2.5489   -5.0416   -2.4191 H         1 <0>         0.0000
     36 H14         0.1926   -3.3589   -1.3070 H         1 <0>         0.0000
     37 H15         0.9978   -3.1431   -2.8622 H         1 <0>         0.0000
     38 H16         0.8573   -1.7835   -1.7352 H         1 <0>         0.0000
     39 H17        -0.9122   -3.0580    3.0659 H         1 <0>         0.0000
     40 H18         0.3436   -3.0358    4.3238 H         1 <0>         0.0000
     41 H19         0.1039   -4.4917    3.3338 H         1 <0>         0.0000
     42 H20         7.7322   -2.3581    2.8457 H         1 <0>         0.0000
     43 H21         7.2705   -1.1813    1.6250 H         1 <0>         0.0000
     44 H22         6.1970   -4.5521    0.2444 H         1 <0>         0.0000
     45 H23         7.1292   -3.1080   -0.1699 H         1 <0>         0.0000
     46 H24         5.6479   -3.6501    2.4472 H         1 <0>         0.0000
     47 H25         2.3043   -1.8161    0.4837 H         1 <0>         0.0000
     48 H26         5.2955   -0.5008    2.9986 H         1 <0>         0.0000
     49 H27         1.4921   -2.0031    2.5267 H         1 <0>         0.0000
     50 H28         3.8157   -4.1378    1.3829 H         1 <0>         0.0000
@<TRIPOS>BOND
     1    1   18 am
     2    1   20 2
     3    2   12 1
     4    2   17 am
     5    2   21 2
     6    3   13 1
     7    3   16 am
     8    3   22 2
     9    4   14 1
    10    5   14 1
    11    6   15 1
    12    7   15 1
    13    8   15 1
    14    9   16 1
    15   10   12 1
    16   10   14 1
    17   11   12 1
    18   11   18 1
    19   13   15 1
    20   13   17 1
    21   18   19 1
    22    1   23 1
    23    4   24 1
    24    4   25 1
    25    4   26 1
    26    5   27 1
    27    5   28 1
    28    5   29 1
    29    6   30 1
    30    6   31 1
    31    6   32 1
    32    7   33 1
    33    7   34 1
    34    7   35 1
    35    8   36 1
    36    8   37 1
    37    8   38 1
    38    9   39 1
    39    9   40 1
    40    9   41 1
    41   10   42 1
    42   10   43 1
    43   11   44 1
    44   11   45 1
    45   12   46 1
    46   13   47 1
    47   14   48 1
    48   16   49 1
    49   17   50 1
@<TRIPOS>MOLECULE
LIGAND
   50    49     0     0     0
SMALL
NO_CHARGES

@<TRIPOS>ATOM
      1 C1          7.5793   -4.4967    4.2605 C.2       1 <0>         0.0000
      2 C2          4.7609   -2.3304    1.0158 C.2       1 <0>         0.0000
      3 C3          1.4114   -2.9063    1.5049 C.2       1 <0>         0.0000
      4 C4          8.5547   -3.1178   -0.0742 C.3       1 <0>         0.0000
      5 C5          7.6782   -5.2829   -0.9666 C.3       1 <0>         0.0000
      6 C6          1.9716   -3.0346   -2.1281 C.3       1 <0>         0.0000
      7 C7          3.1629   -4.9155   -1.0124 C.3       1 <0>         0.0000
      8 C8          0.7197   -4.5702   -0.6013 C.3       1 <0>         0.0000
      9 C9         -0.5781   -1.7107    2.3670 C.3       1 <0>         0.0000
     10 C10         6.4903   -4.2069    0.9698 C.3       1 <0>         0.0000
     11 C11         5.6912   -3.2135    3.1734 C.3       1 <0>         0.0000
     12 C12         5.9953   -2.9363    1.6910 C.3       1 <0>         0.0000
     13 C13         2.4245   -2.8999    0.3599 C.3       1 <0>         0.0000
     14 C14         7.2936   -3.9469   -0.3237 C.3       1 <0>         0.0000
     15 C15         2.0646   -3.8508   -0.8201 C.3       1 <0>         0.0000
     16 N1          0.4604   -1.9038    1.3835 N.am      1 <0>         0.0000
     17 N2          3.6959   -3.2182    0.9688 N.am      1 <0>         0.0000
     18 N3          6.8729   -3.3510    3.9817 N.am      1 <0>         0.0000
     19 O1          7.3330   -2.1714    4.5335 O.3       1 <0>         0.0000
     20 O2          7.3180   -5.6268    3.8588 O.2       1 <0>         0.0000
     21 O3          4.7482   -1.1914    0.5542 O.2       1 <0>         0.0000
     22 O4          1.4623   -3.7076    2.4368 O.2       1 <0>         0.0000
     23 H1          8.4551   -4.3273    4.9116 H         1 <0>         0.0000
     24 H2          9.2158   -3.6219    0.6392 H         1 <0>         0.0000
     25 H3          8.3079   -2.1320    0.3339 H         1 <0>         0.0000
     26 H4          9.1275   -2.9738   -0.9949 H         1 <0>         0.0000
     27 H5          8.3104   -5.8785   -0.2992 H         1 <0>         0.0000
     28 H6          6.7859   -5.8716   -1.2045 H         1 <0>         0.0000
     29 H7          8.2280   -5.1221   -1.9000 H         1 <0>         0.0000
     30 H8          1.2033   -2.2569   -2.0537 H         1 <0>         0.0000
     31 H9          1.7252   -3.6703   -2.9855 H         1 <0>         0.0000
     32 H10         2.9231   -2.5396   -2.3546 H         1 <0>         0.0000
     33 H11         3.2779   -5.5312   -0.1127 H         1 <0>         0.0000
     34 H12         4.1381   -4.4603   -1.2147 H         1 <0>         0.0000
     35 H13         2.9214   -5.5874   -1.8436 H         1 <0>         0.0000
     36 H14         0.7392   -5.1646    0.3197 H         1 <0>         0.0000
     37 H15         0.4883   -5.2543   -1.4246 H         1 <0>         0.0000
     38 H16        -0.1084   -3.8600   -0.5090 H         1 <0>         0.0000
     39 H17        -1.4589   -2.3023    2.1044 H         1 <0>         0.0000
     40 H18        -0.8634   -0.6562    2.4133 H         1 <0>         0.0000
     41 H19        -0.2264   -2.0222    3.3542 H         1 <0>         0.0000
     42 H20         7.1160   -4.7876    1.6607 H         1 <0>         0.0000
     43 H21         5.6310   -4.8442    0.7228 H         1 <0>         0.0000
     44 H22         5.0986   -2.3982    3.6018 H         1 <0>         0.0000
     45 H23         5.1177   -4.1388    3.2917 H         1 <0>         0.0000
     46 H24         6.7931   -2.1847    1.6686 H         1 <0>         0.0000
     47 H25         2.5279   -1.8729   -0.0129 H         1 <0>         0.0000
     48 H26         6.6656   -3.4052   -1.0405 H         1 <0>         0.0000
     49 H27         0.4960   -1.2867    0.5777 H         1 <0>         0.0000
     50 H28         3.8157   -4.1378    1.3829 H         1 <0>         0.0000
@<TRIPOS>BOND
     1    1   18 am
     2    1   20 2
     3    2   12 1
     4    2   17 am
     5    2   21 2
     6    3   13 1
     7    3   16 am
     8    3   22 2
     9    4   14 1
    10    5   14 1
    11    6   15 1
    12    7   15 1
    13    8   15 1
    14    9   16 1
    15   10   12 1
    16   10   14 1
    17   11   12 1
    18   11   18 1
    19   13   15 1
    20   13   17 1
    21   18   19 1
    22    1   23 1
    23    4   24 1
    24    4   25 1
    25    4   26 1
    26    5   27 1
    27    5   28 1
    28    5   29 1
    29    6   30 1
    30    6   31 1
    31    6   32 1
    32    7   33 1
    33    7   34 1
    34    7   35 1
    35    8   36 1
    36    8   37 1
    37    8   38 1
    38    9   39 1
    39    9   40 1
    40    9   41 1
    41   10   42 1
    42   10   43 1
    43   11   44 1
    44   11   45 1
    45   12   46 1
    46   13   47 1
    47   14   48 1
    48   16   49 1
    49   17   50 1
@<TRIPOS>MOLECULE
LIGAND
   50    49     0     0     0
SMALL
NO_CHARGES

@<TRIPOS>ATOM
      1 C1          7.2744   -1.2204   -1.2237 C.2       1 <0>         0.0000
      2 C2          4.7609   -2.3304    1.0158 C.2       1 <0>         0.0000
      3 C3          1.6238   -2.1763    1.4428 C.2       1 <0>         0.0000
      4 C4          5.4286   -5.0551    3.9022 C.3       1 <0>         0.0000
      5 C5          5.1681   -3.1669    5.5205 C.3       1 <0>         0.0000
      6 C6          2.6382   -4.8237   -1.2732 C.3       1 <0>         0.0000
      7 C7          1.4139   -5.1834    0.8654 C.3       1 <0>         0.0000
      8 C8          0.3871   -3.7862   -0.9377 C.3       1 <0>         0.0000
      9 C9          1.1427   -2.2044    3.8715 C.3       1 <0>         0.0000
     10 C10         6.0212   -2.6662    3.2096 C.3       1 <0>         0.0000
     11 C11         7.2695   -2.4142    1.0053 C.3       1 <0>         0.0000
     12 C12         5.9953   -2.9363    1.6910 C.3       1 <0>         0.0000
     13 C13         2.4245   -2.8999    0.3599 C.3       1 <0>         0.0000
     14 C14         5.0884   -3.5706    4.0452 C.3       1 <0>         0.0000
     15 C15         1.7114   -4.1488   -0.2382 C.3       1 <0>         0.0000
     16 N1          1.8198   -2.7177    2.7048 N.am      1 <0>         0.0000
     17 N2          3.6959   -3.2182    0.9688 N.am      1 <0>         0.0000
     18 N3          7.1543   -2.3334   -0.4262 N.am      1 <0>         0.0000
     19 O1          6.8903   -3.5366   -1.0510 O.3       1 <0>         0.0000
     20 O2          7.5059   -0.0764   -0.8437 O.2       1 <0>         0.0000
     21 O3          4.7482   -1.1914    0.5542 O.2       1 <0>         0.0000
     22 O4          0.8744   -1.2316    1.1999 O.2       1 <0>         0.0000
     23 H1          7.1409   -1.4322   -2.2993 H         1 <0>         0.0000
     24 H2          6.4596   -5.2491    4.2175 H         1 <0>         0.0000
     25 H3          5.3256   -5.3883    2.8641 H         1 <0>         0.0000
     26 H4          4.7804   -5.6761    4.5273 H         1 <0>         0.0000
     27 H5          6.1838   -3.2884    5.9121 H         1 <0>         0.0000
     28 H6          4.8754   -2.1200    5.6540 H         1 <0>         0.0000
     29 H7          4.4947   -3.7797    6.1290 H         1 <0>         0.0000
     30 H8          2.8872   -4.1345   -2.0879 H         1 <0>         0.0000
     31 H9          2.1738   -5.7124   -1.7140 H         1 <0>         0.0000
     32 H10         3.5794   -5.1449   -0.8119 H         1 <0>         0.0000
     33 H11         0.7565   -4.7621    1.6349 H         1 <0>         0.0000
     34 H12         2.3282   -5.5113    1.3711 H         1 <0>         0.0000
     35 H13         0.9158   -6.0685    0.4541 H         1 <0>         0.0000
     36 H14        -0.3050   -3.3025   -0.2384 H         1 <0>         0.0000
     37 H15        -0.1179   -4.6740   -1.3329 H         1 <0>         0.0000
     38 H16         0.5457   -3.0900   -1.7676 H         1 <0>         0.0000
     39 H17         1.7401   -1.4157    4.3360 H         1 <0>         0.0000
     40 H18         0.9874   -3.0042    4.6007 H         1 <0>         0.0000
     41 H19         0.1698   -1.7909    3.5925 H         1 <0>         0.0000
     42 H20         7.0493   -2.7891    3.5757 H         1 <0>         0.0000
     43 H21         5.7503   -1.6191    3.3985 H         1 <0>         0.0000
     44 H22         7.5158   -1.4105    1.3677 H         1 <0>         0.0000
     45 H23         8.1255   -3.0633    1.2175 H         1 <0>         0.0000
     46 H24         5.9704   -4.0198    1.5260 H         1 <0>         0.0000
     47 H25         2.6549   -2.1876   -0.4426 H         1 <0>         0.0000
     48 H26         4.0519   -3.4254    3.7195 H         1 <0>         0.0000
     49 H27         2.4595   -3.4993    2.8111 H         1 <0>         0.0000
     50 H28         3.8157   -4.1378    1.3829 H         1 <0>         0.0000
@<TRIPOS>BOND
     1    1   18 am
     2    1   20 2
     3    2   12 1
     4    2   17 am
     5    2   21 2
     6    3   13 1
     7    3   16 am
     8    3   22 2
     9    4   14 1
    10    5   14 1
    11    6   15 1
    12    7   15 1
    13    8   15 1
    14    9   16 1
    15   10   12 1
    16   10   14 1
    17   11   12 1
    18   11   18 1
    19   13   15 1
    20   13   17 1
    21   18   19 1
    22    1   23 1
    23    4   24 1
    24    4   25 1
    25    4   26 1
    26    5   27 1
    27    5   28 1
    28    5   29 1
    29    6   30 1
    30    6   31 1
    31    6   32 1
    32    7   33 1
    33    7   34 1
    34    7   35 1
    35    8   36 1
    36    8   37 1
    37    8   38 1
    38    9   39 1
    39    9   40 1
    40    9   41 1
    41   10   42 1
    42   10   43 1
    43   11   44 1
    44   11   45 1
    45   12   46 1
    46   13   47 1
    47   14   48 1
    48   16   49 1
    49   17   50 1
@<TRIPOS>MOLECULE
LIGAND
   50    49     0     0     0
SMALL
NO_CHARGES

@<TRIPOS>ATOM
      1 C1          7.4494   -6.0057    1.5877 C.2       1 <0>         0.0000
      2 C2          4.7609   -2.3304    1.0158 C.2       1 <0>         0.0000
      3 C3          1.3743   -3.6105    1.2141 C.2       1 <0>         0.0000
      4 C4          6.2068   -2.5045    4.7682 C.3       1 <0>         0.0000
      5 C5          7.2536   -0.2835    4.2952 C.3       1 <0>         0.0000
      6 C6          2.9144   -2.0789   -1.9851 C.3       1 <0>         0.0000
      7 C7          3.2618   -4.4861   -1.4495 C.3       1 <0>         0.0000
      8 C8          0.9399   -3.5730   -1.6309 C.3       1 <0>         0.0000
      9 C9         -0.8899   -3.3247    2.1744 C.3       1 <0>         0.0000
     10 C10         6.8665   -1.8668    2.3816 C.3       1 <0>         0.0000
     11 C11         6.8055   -3.7427    0.6616 C.3       1 <0>         0.0000
     12 C12         5.9953   -2.9363    1.6910 C.3       1 <0>         0.0000
     13 C13         2.4245   -2.8999    0.3599 C.3       1 <0>         0.0000
     14 C14         6.3308   -1.3748    3.7443 C.3       1 <0>         0.0000
     15 C15         2.3718   -3.2623   -1.1540 C.3       1 <0>         0.0000
     16 N1          0.2223   -2.8565    1.3827 N.am      1 <0>         0.0000
     17 N2          3.6959   -3.2182    0.9688 N.am      1 <0>         0.0000
     18 N3          7.7018   -4.6947    1.2608 N.am      1 <0>         0.0000
     19 O1          8.9648   -4.2050    1.5307 O.3       1 <0>         0.0000
     20 O2          8.2408   -6.7918    2.0997 O.2       1 <0>         0.0000
     21 O3          4.7482   -1.1914    0.5542 O.2       1 <0>         0.0000
     22 O4          1.5569   -4.7218    1.7089 O.2       1 <0>         0.0000
     23 H1          6.4220   -6.3305    1.3454 H         1 <0>         0.0000
     24 H2          7.1779   -2.9820    4.9387 H         1 <0>         0.0000
     25 H3          5.5078   -3.2753    4.4268 H         1 <0>         0.0000
     26 H4          5.8592   -2.1311    5.7358 H         1 <0>         0.0000
     27 H5          8.2679   -0.6642    4.4570 H         1 <0>         0.0000
     28 H6          7.3145    0.5617    3.6015 H         1 <0>         0.0000
     29 H7          6.8785    0.0981    5.2508 H         1 <0>         0.0000
     30 H8          2.3199   -1.1739   -1.8172 H         1 <0>         0.0000
     31 H9          2.8994   -2.2973   -3.0585 H         1 <0>         0.0000
     32 H10         3.9518   -1.8484   -1.7158 H         1 <0>         0.0000
     33 H11         2.9258   -5.3642   -0.8858 H         1 <0>         0.0000
     34 H12         4.3049   -4.3063   -1.1689 H         1 <0>         0.0000
     35 H13         3.2353   -4.7468   -2.5135 H         1 <0>         0.0000
     36 H14         0.5126   -4.4101   -1.0664 H         1 <0>         0.0000
     37 H15         0.9176   -3.8503   -2.6901 H         1 <0>         0.0000
     38 H16         0.2727   -2.7163   -1.4916 H         1 <0>         0.0000
     39 H17        -1.5882   -3.8849    1.5471 H         1 <0>         0.0000
     40 H18        -1.4189   -2.4783    2.6208 H         1 <0>         0.0000
     41 H19        -0.5348   -3.9781    2.9759 H         1 <0>         0.0000
     42 H20         7.8774   -2.2707    2.5271 H         1 <0>         0.0000
     43 H21         6.9742   -0.9994    1.7170 H         1 <0>         0.0000
     44 H22         6.1354   -4.3010   -0.0008 H         1 <0>         0.0000
     45 H23         7.4165   -3.0830    0.0367 H         1 <0>         0.0000
     46 H24         5.6479   -3.6501    2.4472 H         1 <0>         0.0000
     47 H25         2.3043   -1.8161    0.4837 H         1 <0>         0.0000
     48 H26         5.3389   -0.9289    3.6068 H         1 <0>         0.0000
     49 H27         0.1595   -1.9470    0.9352 H         1 <0>         0.0000
     50 H28         3.8157   -4.1378    1.3829 H         1 <0>         0.0000
@<TRIPOS>BOND
     1    1   18 am
     2    1   20 2
     3    2   12 1
     4    2   17 am
     5    2   21 2
     6    3   13 1
     7    3   16 am
     8    3   22 2
     9    4   14 1
    10    5   14 1
    11    6   15 1
    12    7   15 1
    13    8   15 1
    14    9   16 1
    15   10   12 1
    16   10   14 1
    17   11   12 1
    18   11   18 1
    19   13   15 1
    20   13   17 1
    21   18   19 1
    22    1   23 1
    23    4   24 1
    24    4   25 1
    25    4   26 1
    26    5   27 1
    27    5   28 1
    28    5   29 1
    29    6   30 1
    30    6   31 1
    31    6   32 1
    32    7   33 1
    33    7   34 1
    34    7   35 1
    35    8   36 1
    36    8   37 1
    37    8   38 1
    38    9   39 1
    39    9   40 1
    40    9   41 1
    41   10   42 1
    42   10   43 1
    43   11   44 1
    44   11   45 1
    45   12   46 1
    46   13   47 1
    47   14   48 1
    48   16   49 1
    49   17   50 1
@<TRIPOS>MOLECULE
LIGAND
   50    49     0     0     0
SMALL
NO_CHARGES

@<TRIPOS>ATOM
      1 C1          5.0743   -0.8742    3.9084 C.2       1 <0>         0.0000
      2 C2          4.7609   -2.3304    1.0158 C.2       1 <0>         0.0000
      3 C3          1.6238   -2.1763    1.4428 C.2       1 <0>         0.0000
      4 C4          8.5547   -3.1178   -0.0742 C.3       1 <0>         0.0000
      5 C5          7.6782   -5.2829   -0.9666 C.3       1 <0>         0.0000
      6 C6          2.6382   -4.8237   -1.2732 C.3       1 <0>         0.0000
      7 C7          1.4139   -5.1834    0.8654 C.3       1 <0>         0.0000
      8 C8          0.3871   -3.7862   -0.9377 C.3       1 <0>         0.0000
      9 C9          1.1427   -2.2044    3.8715 C.3       1 <0>         0.0000
     10 C10         6.4903   -4.2069    0.9698 C.3       1 <0>         0.0000
     11 C11         5.6912   -3.2135    3.1734 C.3       1 <0>         0.0000
     12 C12         5.9953   -2.9363    1.6910 C.3       1 <0>         0.0000
     13 C13         2.4245   -2.8999    0.3599 C.3       1 <0>         0.0000
     14 C14         7.2936   -3.9469   -0.3237 C.3       1 <0>         0.0000
     15 C15         1.7114   -4.1488   -0.2382 C.3       1 <0>         0.0000
     16 N1          1.8198   -2.7177    2.7048 N.am      1 <0>         0.0000
     17 N2          3.6959   -3.2182    0.9688 N.am      1 <0>         0.0000
     18 N3          5.7903   -2.0436    4.0042 N.am      1 <0>         0.0000
     19 O1          6.7278   -2.1331    5.0145 O.3       1 <0>         0.0000
     20 O2          4.2066   -0.6199    3.0784 O.2       1 <0>         0.0000
     21 O3          4.7482   -1.1914    0.5542 O.2       1 <0>         0.0000
     22 O4          0.8744   -1.2316    1.1999 O.2       1 <0>         0.0000
     23 H1          5.3455   -0.1272    4.6753 H         1 <0>         0.0000
     24 H2          9.2158   -3.6219    0.6392 H         1 <0>         0.0000
     25 H3          8.3079   -2.1320    0.3339 H         1 <0>         0.0000
     26 H4          9.1275   -2.9738   -0.9949 H         1 <0>         0.0000
     27 H5          8.3104   -5.8785   -0.2992 H         1 <0>         0.0000
     28 H6          6.7859   -5.8716   -1.2045 H         1 <0>         0.0000
     29 H7          8.2280   -5.1221   -1.9000 H         1 <0>         0.0000
     30 H8          2.8872   -4.1345   -2.0879 H         1 <0>         0.0000
     31 H9          2.1738   -5.7124   -1.7140 H         1 <0>         0.0000
     32 H10         3.5794   -5.1449   -0.8119 H         1 <0>         0.0000
     33 H11         0.7565   -4.7621    1.6349 H         1 <0>         0.0000
     34 H12         2.3282   -5.5113    1.3711 H         1 <0>         0.0000
     35 H13         0.9158   -6.0685    0.4541 H         1 <0>         0.0000
     36 H14        -0.3050   -3.3025   -0.2384 H         1 <0>         0.0000
     37 H15        -0.1179   -4.6740   -1.3329 H         1 <0>         0.0000
     38 H16         0.5457   -3.0900   -1.7676 H         1 <0>         0.0000
     39 H17         1.7401   -1.4157    4.3360 H         1 <0>         0.0000
     40 H18         0.9874   -3.0042    4.6007 H         1 <0>         0.0000
     41 H19         0.1698   -1.7909    3.5925 H         1 <0>         0.0000
     42 H20         7.1160   -4.7876    1.6607 H         1 <0>         0.0000
     43 H21         5.6310   -4.8442    0.7228 H         1 <0>         0.0000
     44 H22         4.6761   -3.6079    3.2888 H         1 <0>         0.0000
     45 H23         6.3842   -3.9541    3.5861 H         1 <0>         0.0000
     46 H24         6.7931   -2.1847    1.6686 H         1 <0>         0.0000
     47 H25         2.6549   -2.1876   -0.4426 H         1 <0>         0.0000
     48 H26         6.6656   -3.4052   -1.0405 H         1 <0>         0.0000
     49 H27         2.4595   -3.4993    2.8111 H         1 <0>         0.0000
     50 H28         3.8157   -4.1378    1.3829 H         1 <0>         0.0000
@<TRIPOS>BOND
     1    1   18 am
     2    1   20 2
     3    2   12 1
     4    2   17 am
     5    2   21 2
     6    3   13 1
     7    3   16 am
     8    3   22 2
     9    4   14 1
    10    5   14 1
    11    6   15 1
    12    7   15 1
    13    8   15 1
    14    9   16 1
    15   10   12 1
    16   10   14 1
    17   11   12 1
    18   11   18 1
    19   13   15 1
    20   13   17 1
    21   18   19 1
    22    1   23 1
    23    4   24 1
    24    4   25 1
    25    4   26 1
    26    5   27 1
    27    5   28 1
    28    5   29 1
    29    6   30 1
    30    6   31 1
    31    6   32 1
    32    7   33 1
    33    7   34 1
    34    7   35 1
    35    8   36 1
    36    8   37 1
    37    8   38 1
    38    9   39 1
    39    9   40 1
    40    9   41 1
    41   10   42 1
    42   10   43 1
    43   11   44 1
    44   11   45 1
    45   12   46 1
    46   13   47 1
    47   14   48 1
    48   16   49 1
    49   17   50 1
@<TRIPOS>MOLECULE
LIGAND
   50    49     0     0     0
SMALL
NO_CHARGES

@<TRIPOS>ATOM
      1 C1          7.5765   -5.8077    2.5860 C.2       1 <0>         0.0000
      2 C2          4.7609   -2.3304    1.0158 C.2       1 <0>         0.0000
      3 C3          1.3743   -3.6105    1.2141 C.2       1 <0>         0.0000
      4 C4          6.5091   -0.8019    3.9002 C.3       1 <0>         0.0000
      5 C5          8.1395    0.2847    2.3467 C.3       1 <0>         0.0000
      6 C6          3.5112   -2.5312   -1.8976 C.3       1 <0>         0.0000
      7 C7          2.5798   -4.7765   -1.3563 C.3       1 <0>         0.0000
      8 C8          1.0336   -2.8618   -1.8044 C.3       1 <0>         0.0000
      9 C9         -0.8899   -3.3247    2.1744 C.3       1 <0>         0.0000
     10 C10         7.1850   -1.9548    1.7203 C.3       1 <0>         0.0000
     11 C11         6.3716   -4.2554    0.9948 C.3       1 <0>         0.0000
     12 C12         5.9953   -2.9363    1.6910 C.3       1 <0>         0.0000
     13 C13         2.4245   -2.8999    0.3599 C.3       1 <0>         0.0000
     14 C14         6.9024   -0.6143    2.4339 C.3       1 <0>         0.0000
     15 C15         2.3718   -3.2623   -1.1540 C.3       1 <0>         0.0000
     16 N1          0.2223   -2.8565    1.3827 N.am      1 <0>         0.0000
     17 N2          3.6959   -3.2182    0.9688 N.am      1 <0>         0.0000
     18 N3          7.5302   -4.8900    1.5637 N.am      1 <0>         0.0000
     19 O1          8.7307   -4.5128    0.9943 O.3       1 <0>         0.0000
     20 O2          8.5867   -6.3302    3.0475 O.2       1 <0>         0.0000
     21 O3          4.7482   -1.1914    0.5542 O.2       1 <0>         0.0000
     22 O4          1.5569   -4.7218    1.7089 O.2       1 <0>         0.0000
     23 H1          6.5828   -6.0634    2.9943 H         1 <0>         0.0000
     24 H2          7.3023   -1.3182    4.4518 H         1 <0>         0.0000
     25 H3          5.5932   -1.3950    3.9932 H         1 <0>         0.0000
     26 H4          6.3469    0.1590    4.3970 H         1 <0>         0.0000
     27 H5          9.0022   -0.1764    2.8396 H         1 <0>         0.0000
     28 H6          8.4077    0.4776    1.3026 H         1 <0>         0.0000
     29 H7          7.9528    1.2519    2.8253 H         1 <0>         0.0000
     30 H8          3.4182   -1.4447   -1.7906 H         1 <0>         0.0000
     31 H9          3.5120   -2.7653   -2.9677 H         1 <0>         0.0000
     32 H10         4.4918   -2.8203   -1.5020 H         1 <0>         0.0000
     33 H11         1.7979   -5.3538   -0.8491 H         1 <0>         0.0000
     34 H12         3.5395   -5.1121   -0.9494 H         1 <0>         0.0000
     35 H13         2.5489   -5.0416   -2.4191 H         1 <0>         0.0000
     36 H14         0.1926   -3.3589   -1.3070 H         1 <0>         0.0000
     37 H15         0.9978   -3.1431   -2.8622 H         1 <0>         0.0000
     38 H16         0.8573   -1.7835   -1.7352 H         1 <0>         0.0000
     39 H17        -1.5882   -3.8849    1.5471 H         1 <0>         0.0000
     40 H18        -1.4189   -2.4783    2.6208 H         1 <0>         0.0000
     41 H19        -0.5348   -3.9781    2.9759 H         1 <0>         0.0000
     42 H20         8.0366   -2.4422    2.2137 H         1 <0>         0.0000
     43 H21         7.5062   -1.7403    0.6926 H         1 <0>         0.0000
     44 H22         5.5455   -4.9716    1.0590 H         1 <0>         0.0000
     45 H23         6.5888   -4.0932   -0.0661 H         1 <0>         0.0000
     46 H24         5.7229   -3.1911    2.7220 H         1 <0>         0.0000
     47 H25         2.3043   -1.8161    0.4837 H         1 <0>         0.0000
     48 H26         6.0820   -0.0957    1.9244 H         1 <0>         0.0000
     49 H27         0.1595   -1.9470    0.9352 H         1 <0>         0.0000
     50 H28         3.8157   -4.1378    1.3829 H         1 <0>         0.0000
@<TRIPOS>BOND
     1    1   18 am
     2    1   20 2
     3    2   12 1
     4    2   17 am
     5    2   21 2
     6    3   13 1
     7    3   16 am
     8    3   22 2
     9    4   14 1
    10    5   14 1
    11    6   15 1
    12    7   15 1
    13    8   15 1
    14    9   16 1
    15   10   12 1
    16   10   14 1
    17   11   12 1
    18   11   18 1
    19   13   15 1
    20   13   17 1
    21   18   19 1
    22    1   23 1
    23    4   24 1
    24    4   25 1
    25    4   26 1
    26    5   27 1
    27    5   28 1
    28    5   29 1
    29    6   30 1
    30    6   31 1
    31    6   32 1
    32    7   33 1
    33    7   34 1
    34    7   35 1
    35    8   36 1
    36    8   37 1
    37    8   38 1
    38    9   39 1
    39    9   40 1
    40    9   41 1
    41   10   42 1
    42   10   43 1
    43   11   44 1
    44   11   45 1
    45   12   46 1
    46   13   47 1
    47   14   48 1
    48   16   49 1
    49   17   50 1
@<TRIPOS>MOLECULE
LIGAND
   50    49     0     0     0
SMALL
NO_CHARGES

@<TRIPOS>ATOM
      1 C1          8.4401   -2.2571   -0.5690 C.2       1 <0>         0.0000
      2 C2          4.7609   -2.3304    1.0158 C.2       1 <0>         0.0000
      3 C3          1.6238   -2.1763    1.4428 C.2       1 <0>         0.0000
      4 C4          5.5916   -1.8934    4.5978 C.3       1 <0>         0.0000
      5 C5          7.0929    0.0222    4.0244 C.3       1 <0>         0.0000
      6 C6          1.5629   -3.9738   -1.7656 C.3       1 <0>         0.0000
      7 C7          2.5490   -5.4199    0.0058 C.3       1 <0>         0.0000
      8 C8          0.3092   -4.3647    0.3632 C.3       1 <0>         0.0000
      9 C9          0.0532   -0.2939    1.7895 C.3       1 <0>         0.0000
     10 C10         6.8665   -1.8668    2.3816 C.3       1 <0>         0.0000
     11 C11         6.8055   -3.7427    0.6616 C.3       1 <0>         0.0000
     12 C12         5.9953   -2.9363    1.6910 C.3       1 <0>         0.0000
     13 C13         2.4245   -2.8999    0.3599 C.3       1 <0>         0.0000
     14 C14         6.1374   -1.0321    3.4575 C.3       1 <0>         0.0000
     15 C15         1.7114   -4.1488   -0.2382 C.3       1 <0>         0.0000
     16 N1          0.8675   -1.1285    0.9389 N.am      1 <0>         0.0000
     17 N2          3.6959   -3.2182    0.9688 N.am      1 <0>         0.0000
     18 N3          7.2606   -2.9528   -0.4510 N.am      1 <0>         0.0000
     19 O1          6.3854   -2.9043   -1.5183 O.3       1 <0>         0.0000
     20 O2          9.3298   -2.1878    0.2738 O.2       1 <0>         0.0000
     21 O3          4.7482   -1.1914    0.5542 O.2       1 <0>         0.0000
     22 O4          1.6741   -2.4892    2.6314 O.2       1 <0>         0.0000
     23 H1          8.5459   -1.7288   -1.5330 H         1 <0>         0.0000
     24 H2          6.4006   -2.4456    5.0885 H         1 <0>         0.0000
     25 H3          4.8609   -2.6219    4.2310 H         1 <0>         0.0000
     26 H4          5.1097   -1.2817    5.3659 H         1 <0>         0.0000
     27 H5          7.9623   -0.4436    4.5008 H         1 <0>         0.0000
     28 H6          7.4545    0.6861    3.2321 H         1 <0>         0.0000
     29 H7          6.5886    0.6429    4.7727 H         1 <0>         0.0000
     30 H8          0.9734   -3.0815   -2.0047 H         1 <0>         0.0000
     31 H9          1.0695   -4.8366   -2.2261 H         1 <0>         0.0000
     32 H10         2.5408   -3.8638   -2.2486 H         1 <0>         0.0000
     33 H11         2.6906   -5.5997    1.0780 H         1 <0>         0.0000
     34 H12         3.5464   -5.3400   -0.4391 H         1 <0>         0.0000
     35 H13         2.0579   -6.3043   -0.4152 H         1 <0>         0.0000
     36 H14         0.3656   -4.4943    1.4504 H         1 <0>         0.0000
     37 H15        -0.1731   -5.2588   -0.0460 H         1 <0>         0.0000
     38 H16        -0.3478   -3.5097    0.1741 H         1 <0>         0.0000
     39 H17        -0.9522   -0.7139    1.8767 H         1 <0>         0.0000
     40 H18        -0.0213    0.7135    1.3710 H         1 <0>         0.0000
     41 H19         0.4945   -0.2269    2.7876 H         1 <0>         0.0000
     42 H20         7.7322   -2.3581    2.8457 H         1 <0>         0.0000
     43 H21         7.2705   -1.1813    1.6250 H         1 <0>         0.0000
     44 H22         7.6920   -4.1821    1.1312 H         1 <0>         0.0000
     45 H23         6.2097   -4.5617    0.2452 H         1 <0>         0.0000
     46 H24         5.6479   -3.6501    2.4472 H         1 <0>         0.0000
     47 H25         2.6549   -2.1876   -0.4426 H         1 <0>         0.0000
     48 H26         5.2955   -0.5008    2.9986 H         1 <0>         0.0000
     49 H27         0.8872   -0.9429   -0.0594 H         1 <0>         0.0000
     50 H28         3.8157   -4.1378    1.3829 H         1 <0>         0.0000
@<TRIPOS>BOND
     1    1   18 am
     2    1   20 2
     3    2   12 1
     4    2   17 am
     5    2   21 2
     6    3   13 1
     7    3   16 am
     8    3   22 2
     9    4   14 1
    10    5   14 1
    11    6   15 1
    12    7   15 1
    13    8   15 1
    14    9   16 1
    15   10   12 1
    16   10   14 1
    17   11   12 1
    18   11   18 1
    19   13   15 1
    20   13   17 1
    21   18   19 1
    22    1   23 1
    23    4   24 1
    24    4   25 1
    25    4   26 1
    26    5   27 1
    27    5   28 1
    28    5   29 1
    29    6   30 1
    30    6   31 1
    31    6   32 1
    32    7   33 1
    33    7   34 1
    34    7   35 1
    35    8   36 1
    36    8   37 1
    37    8   38 1
    38    9   39 1
    39    9   40 1
    40    9   41 1
    41   10   42 1
    42   10   43 1
    43   11   44 1
    44   11   45 1
    45   12   46 1
    46   13   47 1
    47   14   48 1
    48   16   49 1
    49   17   50 1
@<TRIPOS>MOLECULE
LIGAND
   50    49     0     0     0
SMALL
NO_CHARGES

@<TRIPOS>ATOM
      1 C1          7.3043   -2.3507   -1.3895 C.2       1 <0>         0.0000
      2 C2          4.7609   -2.3304    1.0158 C.2       1 <0>         0.0000
      3 C3          1.4114   -2.9063    1.5049 C.2       1 <0>         0.0000
      4 C4          5.5916   -1.8934    4.5978 C.3       1 <0>         0.0000
      5 C5          7.0929    0.0222    4.0244 C.3       1 <0>         0.0000
      6 C6          1.9716   -3.0346   -2.1281 C.3       1 <0>         0.0000
      7 C7          3.1629   -4.9155   -1.0124 C.3       1 <0>         0.0000
      8 C8          0.7197   -4.5702   -0.6013 C.3       1 <0>         0.0000
      9 C9         -0.5781   -1.7107    2.3670 C.3       1 <0>         0.0000
     10 C10         6.8665   -1.8668    2.3816 C.3       1 <0>         0.0000
     11 C11         6.8055   -3.7427    0.6616 C.3       1 <0>         0.0000
     12 C12         5.9953   -2.9363    1.6910 C.3       1 <0>         0.0000
     13 C13         2.4245   -2.8999    0.3599 C.3       1 <0>         0.0000
     14 C14         6.1374   -1.0321    3.4575 C.3       1 <0>         0.0000
     15 C15         2.0646   -3.8508   -0.8201 C.3       1 <0>         0.0000
     16 N1          0.4604   -1.9038    1.3835 N.am      1 <0>         0.0000
     17 N2          3.6959   -3.2182    0.9688 N.am      1 <0>         0.0000
     18 N3          7.6315   -2.9222   -0.1830 N.am      1 <0>         0.0000
     19 O1          8.9050   -2.6967    0.3017 O.3       1 <0>         0.0000
     20 O2          6.2260   -2.4438   -1.9685 O.2       1 <0>         0.0000
     21 O3          4.7482   -1.1914    0.5542 O.2       1 <0>         0.0000
     22 O4          1.4623   -3.7076    2.4368 O.2       1 <0>         0.0000
     23 H1          8.1259   -1.7633   -1.8363 H         1 <0>         0.0000
     24 H2          6.4006   -2.4456    5.0885 H         1 <0>         0.0000
     25 H3          4.8609   -2.6219    4.2310 H         1 <0>         0.0000
     26 H4          5.1097   -1.2817    5.3659 H         1 <0>         0.0000
     27 H5          7.9623   -0.4436    4.5008 H         1 <0>         0.0000
     28 H6          7.4545    0.6861    3.2321 H         1 <0>         0.0000
     29 H7          6.5886    0.6429    4.7727 H         1 <0>         0.0000
     30 H8          1.2033   -2.2569   -2.0537 H         1 <0>         0.0000
     31 H9          1.7252   -3.6703   -2.9855 H         1 <0>         0.0000
     32 H10         2.9231   -2.5396   -2.3546 H         1 <0>         0.0000
     33 H11         3.2779   -5.5312   -0.1127 H         1 <0>         0.0000
     34 H12         4.1381   -4.4603   -1.2147 H         1 <0>         0.0000
     35 H13         2.9214   -5.5874   -1.8436 H         1 <0>         0.0000
     36 H14         0.7392   -5.1646    0.3197 H         1 <0>         0.0000
     37 H15         0.4883   -5.2543   -1.4246 H         1 <0>         0.0000
     38 H16        -0.1084   -3.8600   -0.5090 H         1 <0>         0.0000
     39 H17        -1.4589   -2.3023    2.1044 H         1 <0>         0.0000
     40 H18        -0.8634   -0.6562    2.4133 H         1 <0>         0.0000
     41 H19        -0.2264   -2.0222    3.3542 H         1 <0>         0.0000
     42 H20         7.7322   -2.3581    2.8457 H         1 <0>         0.0000
     43 H21         7.2705   -1.1813    1.6250 H         1 <0>         0.0000
     44 H22         7.4659   -4.4552    1.1672 H         1 <0>         0.0000
     45 H23         6.1454   -4.3134    0.0001 H         1 <0>         0.0000
     46 H24         5.6479   -3.6501    2.4472 H         1 <0>         0.0000
     47 H25         2.5279   -1.8729   -0.0129 H         1 <0>         0.0000
     48 H26         5.2955   -0.5008    2.9986 H         1 <0>         0.0000
     49 H27         0.4960   -1.2867    0.5777 H         1 <0>         0.0000
     50 H28         3.8157   -4.1378    1.3829 H         1 <0>         0.0000
@<TRIPOS>BOND
     1    1   18 am
     2    1   20 2
     3    2   12 1
     4    2   17 am
     5    2   21 2
     6    3   13 1
     7    3   16 am
     8    3   22 2
     9    4   14 1
    10    5   14 1
    11    6   15 1
    12    7   15 1
    13    8   15 1
    14    9   16 1
    15   10   12 1
    16   10   14 1
    17   11   12 1
    18   11   18 1
    19   13   15 1
    20   13   17 1
    21   18   19 1
    22    1   23 1
    23    4   24 1
    24    4   25 1
    25    4   26 1
    26    5   27 1
    27    5   28 1
    28    5   29 1
    29    6   30 1
    30    6   31 1
    31    6   32 1
    32    7   33 1
    33    7   34 1
    34    7   35 1
    35    8   36 1
    36    8   37 1
    37    8   38 1
    38    9   39 1
    39    9   40 1
    40    9   41 1
    41   10   42 1
    42   10   43 1
    43   11   44 1
    44   11   45 1
    45   12   46 1
    46   13   47 1
    47   14   48 1
    48   16   49 1
    49   17   50 1
@<TRIPOS>MOLECULE
LIGAND
   50    49     0     0     0
SMALL
NO_CHARGES

@<TRIPOS>ATOM
      1 C1          6.6167   -2.7186   -1.6426 C.2       1 <0>         0.0000
      2 C2          4.7609   -2.3304    1.0158 C.2       1 <0>         0.0000
      3 C3          1.6238   -2.1763    1.4428 C.2       1 <0>         0.0000
      4 C4          5.5916   -1.8934    4.5978 C.3       1 <0>         0.0000
      5 C5          7.0929    0.0222    4.0244 C.3       1 <0>         0.0000
      6 C6          1.5629   -3.9738   -1.7656 C.3       1 <0>         0.0000
      7 C7          2.5490   -5.4199    0.0058 C.3       1 <0>         0.0000
      8 C8          0.3092   -4.3647    0.3632 C.3       1 <0>         0.0000
      9 C9          0.0532   -0.2939    1.7895 C.3       1 <0>         0.0000
     10 C10         6.8665   -1.8668    2.3816 C.3       1 <0>         0.0000
     11 C11         6.8055   -3.7427    0.6616 C.3       1 <0>         0.0000
     12 C12         5.9953   -2.9363    1.6910 C.3       1 <0>         0.0000
     13 C13         2.4245   -2.8999    0.3599 C.3       1 <0>         0.0000
     14 C14         6.1374   -1.0321    3.4575 C.3       1 <0>         0.0000
     15 C15         1.7114   -4.1488   -0.2382 C.3       1 <0>         0.0000
     16 N1          0.8675   -1.1285    0.9389 N.am      1 <0>         0.0000
     17 N2          3.6959   -3.2182    0.9688 N.am      1 <0>         0.0000
     18 N3          7.2606   -2.9528   -0.4510 N.am      1 <0>         0.0000
     19 O1          8.4998   -2.3693   -0.2736 O.3       1 <0>         0.0000
     20 O2          5.5167   -3.1530   -1.9712 O.2       1 <0>         0.0000
     21 O3          4.7482   -1.1914    0.5542 O.2       1 <0>         0.0000
     22 O4          1.6741   -2.4892    2.6314 O.2       1 <0>         0.0000
     23 H1          7.1876   -2.0725   -2.3326 H         1 <0>         0.0000
     24 H2          6.4006   -2.4456    5.0885 H         1 <0>         0.0000
     25 H3          4.8609   -2.6219    4.2310 H         1 <0>         0.0000
     26 H4          5.1097   -1.2817    5.3659 H         1 <0>         0.0000
     27 H5          7.9623   -0.4436    4.5008 H         1 <0>         0.0000
     28 H6          7.4545    0.6861    3.2321 H         1 <0>         0.0000
     29 H7          6.5886    0.6429    4.7727 H         1 <0>         0.0000
     30 H8          0.9734   -3.0815   -2.0047 H         1 <0>         0.0000
     31 H9          1.0695   -4.8366   -2.2261 H         1 <0>         0.0000
     32 H10         2.5408   -3.8638   -2.2486 H         1 <0>         0.0000
     33 H11         2.6906   -5.5997    1.0780 H         1 <0>         0.0000
     34 H12         3.5464   -5.3400   -0.4391 H         1 <0>         0.0000
     35 H13         2.0579   -6.3043   -0.4152 H         1 <0>         0.0000
     36 H14         0.3656   -4.4943    1.4504 H         1 <0>         0.0000
     37 H15        -0.1731   -5.2588   -0.0460 H         1 <0>         0.0000
     38 H16        -0.3478   -3.5097    0.1741 H         1 <0>         0.0000
     39 H17        -0.9522   -0.7139    1.8767 H         1 <0>         0.0000
     40 H18        -0.0213    0.7135    1.3710 H         1 <0>         0.0000
     41 H19         0.4945   -0.2269    2.7876 H         1 <0>         0.0000
     42 H20         7.7322   -2.3581    2.8457 H         1 <0>         0.0000
     43 H21         7.2705   -1.1813    1.6250 H         1 <0>         0.0000
     44 H22         7.6920   -4.1821    1.1312 H         1 <0>         0.0000
     45 H23         6.2097   -4.5617    0.2452 H         1 <0>         0.0000
     46 H24         5.6479   -3.6501    2.4472 H         1 <0>         0.0000
     47 H25         2.6549   -2.1876   -0.4426 H         1 <0>         0.0000
     48 H26         5.2955   -0.5008    2.9986 H         1 <0>         0.0000
     49 H27         0.8872   -0.9429   -0.0594 H         1 <0>         0.0000
     50 H28         3.8157   -4.1378    1.3829 H         1 <0>         0.0000
@<TRIPOS>BOND
     1    1   18 am
     2    1   20 2
     3    2   12 1
     4    2   17 am
     5    2   21 2
     6    3   13 1
     7    3   16 am
     8    3   22 2
     9    4   14 1
    10    5   14 1
    11    6   15 1
    12    7   15 1
    13    8   15 1
    14    9   16 1
    15   10   12 1
    16   10   14 1
    17   11   12 1
    18   11   18 1
    19   13   15 1
    20   13   17 1
    21   18   19 1
    22    1   23 1
    23    4   24 1
    24    4   25 1
    25    4   26 1
    26    5   27 1
    27    5   28 1
    28    5   29 1
    29    6   30 1
    30    6   31 1
    31    6   32 1
    32    7   33 1
    33    7   34 1
    34    7   35 1
    35    8   36 1
    36    8   37 1
    37    8   38 1
    38    9   39 1
    39    9   40 1
    40    9   41 1
    41   10   42 1
    42   10   43 1
    43   11   44 1
    44   11   45 1
    45   12   46 1
    46   13   47 1
    47   14   48 1
    48   16   49 1
    49   17   50 1
@<TRIPOS>MOLECULE
LIGAND
   50    49     0     0     0
SMALL
NO_CHARGES

@<TRIPOS>ATOM
      1 C1          8.2041   -5.3564    0.7906 C.2       1 <0>         0.0000
      2 C2          4.7609   -2.3304    1.0158 C.2       1 <0>         0.0000
      3 C3          1.3743   -3.6105    1.2141 C.2       1 <0>         0.0000
      4 C4          4.8998   -3.3220    4.5808 C.3       1 <0>         0.0000
      5 C5          5.9126   -1.1117    5.1647 C.3       1 <0>         0.0000
      6 C6          3.5112   -2.5312   -1.8976 C.3       1 <0>         0.0000
      7 C7          2.5798   -4.7765   -1.3563 C.3       1 <0>         0.0000
      8 C8          1.0336   -2.8618   -1.8044 C.3       1 <0>         0.0000
      9 C9          0.6347   -3.9155    3.5573 C.3       1 <0>         0.0000
     10 C10         6.4405   -2.1272    2.9267 C.3       1 <0>         0.0000
     11 C11         7.1342   -3.0688    0.6654 C.3       1 <0>         0.0000
     12 C12         5.9953   -2.9363    1.6910 C.3       1 <0>         0.0000
     13 C13         2.4245   -2.8999    0.3599 C.3       1 <0>         0.0000
     14 C14         5.3645   -1.9750    4.0244 C.3       1 <0>         0.0000
     15 C15         2.3718   -3.2623   -1.1540 C.3       1 <0>         0.0000
     16 N1          1.5064   -3.3313    2.5663 N.am      1 <0>         0.0000
     17 N2          3.6959   -3.2182    0.9688 N.am      1 <0>         0.0000
     18 N3          8.1489   -4.0093    1.0586 N.am      1 <0>         0.0000
     19 O1          9.1831   -3.4656    1.7950 O.3       1 <0>         0.0000
     20 O2          9.0883   -6.1312    1.1432 O.2       1 <0>         0.0000
     21 O3          4.7482   -1.1914    0.5542 O.2       1 <0>         0.0000
     22 O4          0.5249   -4.3627    0.7389 O.2       1 <0>         0.0000
     23 H1          7.3469   -5.7237    0.1991 H         1 <0>         0.0000
     24 H2          5.7423   -3.8772    5.0075 H         1 <0>         0.0000
     25 H3          4.4501   -3.9417    3.7978 H         1 <0>         0.0000
     26 H4          4.1642   -3.1925    5.3800 H         1 <0>         0.0000
     27 H5          6.7922   -1.5734    5.6261 H         1 <0>         0.0000
     28 H6          6.2016   -0.1209    4.7985 H         1 <0>         0.0000
     29 H7          5.1564   -0.9697    5.9440 H         1 <0>         0.0000
     30 H8          3.4182   -1.4447   -1.7906 H         1 <0>         0.0000
     31 H9          3.5120   -2.7653   -2.9677 H         1 <0>         0.0000
     32 H10         4.4918   -2.8203   -1.5020 H         1 <0>         0.0000
     33 H11         1.7979   -5.3538   -0.8491 H         1 <0>         0.0000
     34 H12         3.5395   -5.1121   -0.9494 H         1 <0>         0.0000
     35 H13         2.5489   -5.0416   -2.4191 H         1 <0>         0.0000
     36 H14         0.1926   -3.3589   -1.3070 H         1 <0>         0.0000
     37 H15         0.9978   -3.1431   -2.8622 H         1 <0>         0.0000
     38 H16         0.8573   -1.7835   -1.7352 H         1 <0>         0.0000
     39 H17        -0.2373   -3.2755    3.7147 H         1 <0>         0.0000
     40 H18         1.1644   -4.0284    4.5071 H         1 <0>         0.0000
     41 H19         0.2935   -4.9003    3.2271 H         1 <0>         0.0000
     42 H20         7.3251   -2.6069    3.3666 H         1 <0>         0.0000
     43 H21         6.7588   -1.1249    2.6110 H         1 <0>         0.0000
     44 H22         6.7419   -3.4007   -0.3017 H         1 <0>         0.0000
     45 H23         7.6368   -2.1087    0.5083 H         1 <0>         0.0000
     46 H24         5.7385   -3.9535    2.0094 H         1 <0>         0.0000
     47 H25         2.3043   -1.8161    0.4837 H         1 <0>         0.0000
     48 H26         4.4913   -1.4577    3.6101 H         1 <0>         0.0000
     49 H27         2.2391   -2.6962    2.8684 H         1 <0>         0.0000
     50 H28         3.8157   -4.1378    1.3829 H         1 <0>         0.0000
@<TRIPOS>BOND
     1    1   18 am
     2    1   20 2
     3    2   12 1
     4    2   17 am
     5    2   21 2
     6    3   13 1
     7    3   16 am
     8    3   22 2
     9    4   14 1
    10    5   14 1
    11    6   15 1
    12    7   15 1
    13    8   15 1
    14    9   16 1
    15   10   12 1
    16   10   14 1
    17   11   12 1
    18   11   18 1
    19   13   15 1
    20   13   17 1
    21   18   19 1
    22    1   23 1
    23    4   24 1
    24    4   25 1
    25    4   26 1
    26    5   27 1
    27    5   28 1
    28    5   29 1
    29    6   30 1
    30    6   31 1
    31    6   32 1
    32    7   33 1
    33    7   34 1
    34    7   35 1
    35    8   36 1
    36    8   37 1
    37    8   38 1
    38    9   39 1
    39    9   40 1
    40    9   41 1
    41   10   42 1
    42   10   43 1
    43   11   44 1
    44   11   45 1
    45   12   46 1
    46   13   47 1
    47   14   48 1
    48   16   49 1
    49   17   50 1
@<TRIPOS>MOLECULE
LIGAND
   50    49     0     0     0
SMALL
NO_CHARGES

@<TRIPOS>ATOM
      1 C1          7.8097   -2.2228   -1.0920 C.2       1 <0>         0.0000
      2 C2          4.7609   -2.3304    1.0158 C.2       1 <0>         0.0000
      3 C3          1.6238   -2.1763    1.4428 C.2       1 <0>         0.0000
      4 C4          5.5916   -1.8934    4.5978 C.3       1 <0>         0.0000
      5 C5          7.0929    0.0222    4.0244 C.3       1 <0>         0.0000
      6 C6          2.6382   -4.8237   -1.2732 C.3       1 <0>         0.0000
      7 C7          1.4139   -5.1834    0.8654 C.3       1 <0>         0.0000
      8 C8          0.3871   -3.7862   -0.9377 C.3       1 <0>         0.0000
      9 C9          1.1427   -2.2044    3.8715 C.3       1 <0>         0.0000
     10 C10         6.8665   -1.8668    2.3816 C.3       1 <0>         0.0000
     11 C11         6.8055   -3.7427    0.6616 C.3       1 <0>         0.0000
     12 C12         5.9953   -2.9363    1.6910 C.3       1 <0>         0.0000
     13 C13         2.4245   -2.8999    0.3599 C.3       1 <0>         0.0000
     14 C14         6.1374   -1.0321    3.4575 C.3       1 <0>         0.0000
     15 C15         1.7114   -4.1488   -0.2382 C.3       1 <0>         0.0000
     16 N1          1.8198   -2.7177    2.7048 N.am      1 <0>         0.0000
     17 N2          3.6959   -3.2182    0.9688 N.am      1 <0>         0.0000
     18 N3          6.8710   -3.1147   -0.6307 N.am      1 <0>         0.0000
     19 O1          5.8533   -3.4689   -1.4948 O.3       1 <0>         0.0000
     20 O2          7.8344   -1.7052   -2.2047 O.2       1 <0>         0.0000
     21 O3          4.7482   -1.1914    0.5542 O.2       1 <0>         0.0000
     22 O4          0.8744   -1.2316    1.1999 O.2       1 <0>         0.0000
     23 H1          8.5928   -1.9842   -0.3508 H         1 <0>         0.0000
     24 H2          6.4006   -2.4456    5.0885 H         1 <0>         0.0000
     25 H3          4.8609   -2.6219    4.2310 H         1 <0>         0.0000
     26 H4          5.1097   -1.2817    5.3659 H         1 <0>         0.0000
     27 H5          7.9623   -0.4436    4.5008 H         1 <0>         0.0000
     28 H6          7.4545    0.6861    3.2321 H         1 <0>         0.0000
     29 H7          6.5886    0.6429    4.7727 H         1 <0>         0.0000
     30 H8          2.8872   -4.1345   -2.0879 H         1 <0>         0.0000
     31 H9          2.1738   -5.7124   -1.7140 H         1 <0>         0.0000
     32 H10         3.5794   -5.1449   -0.8119 H         1 <0>         0.0000
     33 H11         0.7565   -4.7621    1.6349 H         1 <0>         0.0000
     34 H12         2.3282   -5.5113    1.3711 H         1 <0>         0.0000
     35 H13         0.9158   -6.0685    0.4541 H         1 <0>         0.0000
     36 H14        -0.3050   -3.3025   -0.2384 H         1 <0>         0.0000
     37 H15        -0.1179   -4.6740   -1.3329 H         1 <0>         0.0000
     38 H16         0.5457   -3.0900   -1.7676 H         1 <0>         0.0000
     39 H17         1.7401   -1.4157    4.3360 H         1 <0>         0.0000
     40 H18         0.9874   -3.0042    4.6007 H         1 <0>         0.0000
     41 H19         0.1698   -1.7909    3.5925 H         1 <0>         0.0000
     42 H20         7.7322   -2.3581    2.8457 H         1 <0>         0.0000
     43 H21         7.2705   -1.1813    1.6250 H         1 <0>         0.0000
     44 H22         7.8354   -3.8802    1.0076 H         1 <0>         0.0000
     45 H23         6.3710   -4.7361    0.5088 H         1 <0>         0.0000
     46 H24         5.6479   -3.6501    2.4472 H         1 <0>         0.0000
     47 H25         2.6549   -2.1876   -0.4426 H         1 <0>         0.0000
     48 H26         5.2955   -0.5008    2.9986 H         1 <0>         0.0000
     49 H27         2.4595   -3.4993    2.8111 H         1 <0>         0.0000
     50 H28         3.8157   -4.1378    1.3829 H         1 <0>         0.0000
@<TRIPOS>BOND
     1    1   18 am
     2    1   20 2
     3    2   12 1
     4    2   17 am
     5    2   21 2
     6    3   13 1
     7    3   16 am
     8    3   22 2
     9    4   14 1
    10    5   14 1
    11    6   15 1
    12    7   15 1
    13    8   15 1
    14    9   16 1
    15   10   12 1
    16   10   14 1
    17   11   12 1
    18   11   18 1
    19   13   15 1
    20   13   17 1
    21   18   19 1
    22    1   23 1
    23    4   24 1
    24    4   25 1
    25    4   26 1
    26    5   27 1
    27    5   28 1
    28    5   29 1
    29    6   30 1
    30    6   31 1
    31    6   32 1
    32    7   33 1
    33    7   34 1
    34    7   35 1
    35    8   36 1
    36    8   37 1
    37    8   38 1
    38    9   39 1
    39    9   40 1
    40    9   41 1
    41   10   42 1
    42   10   43 1
    43   11   44 1
    44   11   45 1
    45   12   46 1
    46   13   47 1
    47   14   48 1
    48   16   49 1
    49   17   50 1
@<TRIPOS>MOLECULE
LIGAND
   50    49     0     0     0
SMALL
NO_CHARGES

@<TRIPOS>ATOM
      1 C1          7.2369   -1.9201   -1.0371 C.2       1 <0>         0.0000
      2 C2          4.7609   -2.3304    1.0158 C.2       1 <0>         0.0000
      3 C3          1.3743   -3.6105    1.2141 C.2       1 <0>         0.0000
      4 C4          5.5916   -1.8934    4.5978 C.3       1 <0>         0.0000
      5 C5          7.0929    0.0222    4.0244 C.3       1 <0>         0.0000
      6 C6          3.5112   -2.5312   -1.8976 C.3       1 <0>         0.0000
      7 C7          2.5798   -4.7765   -1.3563 C.3       1 <0>         0.0000
      8 C8          1.0336   -2.8618   -1.8044 C.3       1 <0>         0.0000
      9 C9         -0.8899   -3.3247    2.1744 C.3       1 <0>         0.0000
     10 C10         6.8665   -1.8668    2.3816 C.3       1 <0>         0.0000
     11 C11         6.8055   -3.7427    0.6616 C.3       1 <0>         0.0000
     12 C12         5.9953   -2.9363    1.6910 C.3       1 <0>         0.0000
     13 C13         2.4245   -2.8999    0.3599 C.3       1 <0>         0.0000
     14 C14         6.1374   -1.0321    3.4575 C.3       1 <0>         0.0000
     15 C15         2.3718   -3.2623   -1.1540 C.3       1 <0>         0.0000
     16 N1          0.2223   -2.8565    1.3827 N.am      1 <0>         0.0000
     17 N2          3.6959   -3.2182    0.9688 N.am      1 <0>         0.0000
     18 N3          7.6315   -2.9222   -0.1830 N.am      1 <0>         0.0000
     19 O1          8.9831   -3.1960   -0.1070 O.3       1 <0>         0.0000
     20 O2          7.9719   -1.2382   -1.7452 O.2       1 <0>         0.0000
     21 O3          4.7482   -1.1914    0.5542 O.2       1 <0>         0.0000
     22 O4          1.5569   -4.7218    1.7089 O.2       1 <0>         0.0000
     23 H1          6.1450   -1.7549   -1.0483 H         1 <0>         0.0000
     24 H2          6.4006   -2.4456    5.0885 H         1 <0>         0.0000
     25 H3          4.8609   -2.6219    4.2310 H         1 <0>         0.0000
     26 H4          5.1097   -1.2817    5.3659 H         1 <0>         0.0000
     27 H5          7.9623   -0.4436    4.5008 H         1 <0>         0.0000
     28 H6          7.4545    0.6861    3.2321 H         1 <0>         0.0000
     29 H7          6.5886    0.6429    4.7727 H         1 <0>         0.0000
     30 H8          3.4182   -1.4447   -1.7906 H         1 <0>         0.0000
     31 H9          3.5120   -2.7653   -2.9677 H         1 <0>         0.0000
     32 H10         4.4918   -2.8203   -1.5020 H         1 <0>         0.0000
     33 H11         1.7979   -5.3538   -0.8491 H         1 <0>         0.0000
     34 H12         3.5395   -5.1121   -0.9494 H         1 <0>         0.0000
     35 H13         2.5489   -5.0416   -2.4191 H         1 <0>         0.0000
     36 H14         0.1926   -3.3589   -1.3070 H         1 <0>         0.0000
     37 H15         0.9978   -3.1431   -2.8622 H         1 <0>         0.0000
     38 H16         0.8573   -1.7835   -1.7352 H         1 <0>         0.0000
     39 H17        -1.5882   -3.8849    1.5471 H         1 <0>         0.0000
     40 H18        -1.4189   -2.4783    2.6208 H         1 <0>         0.0000
     41 H19        -0.5348   -3.9781    2.9759 H         1 <0>         0.0000
     42 H20         7.7322   -2.3581    2.8457 H         1 <0>         0.0000
     43 H21         7.2705   -1.1813    1.6250 H         1 <0>         0.0000
     44 H22         7.4659   -4.4552    1.1672 H         1 <0>         0.0000
     45 H23         6.1454   -4.3134    0.0001 H         1 <0>         0.0000
     46 H24         5.6479   -3.6501    2.4472 H         1 <0>         0.0000
     47 H25         2.3043   -1.8161    0.4837 H         1 <0>         0.0000
     48 H26         5.2955   -0.5008    2.9986 H         1 <0>         0.0000
     49 H27         0.1595   -1.9470    0.9352 H         1 <0>         0.0000
     50 H28         3.8157   -4.1378    1.3829 H         1 <0>         0.0000
@<TRIPOS>BOND
     1    1   18 am
     2    1   20 2
     3    2   12 1
     4    2   17 am
     5    2   21 2
     6    3   13 1
     7    3   16 am
     8    3   22 2
     9    4   14 1
    10    5   14 1
    11    6   15 1
    12    7   15 1
    13    8   15 1
    14    9   16 1
    15   10   12 1
    16   10   14 1
    17   11   12 1
    18   11   18 1
    19   13   15 1
    20   13   17 1
    21   18   19 1
    22    1   23 1
    23    4   24 1
    24    4   25 1
    25    4   26 1
    26    5   27 1
    27    5   28 1
    28    5   29 1
    29    6   30 1
    30    6   31 1
    31    6   32 1
    32    7   33 1
    33    7   34 1
    34    7   35 1
    35    8   36 1
    36    8   37 1
    37    8   38 1
    38    9   39 1
    39    9   40 1
    40    9   41 1
    41   10   42 1
    42   10   43 1
    43   11   44 1
    44   11   45 1
    45   12   46 1
    46   13   47 1
    47   14   48 1
    48   16   49 1
    49   17   50 1
@<TRIPOS>MOLECULE
LIGAND
   50    49     0     0     0
SMALL
NO_CHARGES

@<TRIPOS>ATOM
      1 C1          8.9310   -2.5277    0.0294 C.2       1 <0>         0.0000
      2 C2          4.7609   -2.3304    1.0158 C.2       1 <0>         0.0000
      3 C3          1.4114   -2.9063    1.5049 C.2       1 <0>         0.0000
      4 C4          6.2068   -2.5045    4.7682 C.3       1 <0>         0.0000
      5 C5          7.2536   -0.2835    4.2952 C.3       1 <0>         0.0000
      6 C6          3.1857   -3.8003   -1.8813 C.3       1 <0>         0.0000
      7 C7          1.9543   -5.3076   -0.3278 C.3       1 <0>         0.0000
      8 C8          0.7370   -3.4626   -1.4991 C.3       1 <0>         0.0000
      9 C9          0.5462   -1.5170    3.3628 C.3       1 <0>         0.0000
     10 C10         6.8665   -1.8668    2.3816 C.3       1 <0>         0.0000
     11 C11         6.8055   -3.7427    0.6616 C.3       1 <0>         0.0000
     12 C12         5.9953   -2.9363    1.6910 C.3       1 <0>         0.0000
     13 C13         2.4245   -2.8999    0.3599 C.3       1 <0>         0.0000
     14 C14         6.3308   -1.3748    3.7443 C.3       1 <0>         0.0000
     15 C15         2.0646   -3.8508   -0.8201 C.3       1 <0>         0.0000
     16 N1          1.4084   -1.7198    2.2232 N.am      1 <0>         0.0000
     17 N2          3.6959   -3.2182    0.9688 N.am      1 <0>         0.0000
     18 N3          7.6315   -2.9222   -0.1830 N.am      1 <0>         0.0000
     19 O1          7.0188   -2.4912   -1.3434 O.3       1 <0>         0.0000
     20 O2          9.6074   -1.8248   -0.7155 O.2       1 <0>         0.0000
     21 O3          4.7482   -1.1914    0.5542 O.2       1 <0>         0.0000
     22 O4          0.6993   -3.8762    1.7607 O.2       1 <0>         0.0000
     23 H1          9.3580   -2.9072    0.9745 H         1 <0>         0.0000
     24 H2          7.1779   -2.9820    4.9387 H         1 <0>         0.0000
     25 H3          5.5078   -3.2753    4.4268 H         1 <0>         0.0000
     26 H4          5.8592   -2.1311    5.7358 H         1 <0>         0.0000
     27 H5          8.2679   -0.6642    4.4570 H         1 <0>         0.0000
     28 H6          7.3145    0.5617    3.6015 H         1 <0>         0.0000
     29 H7          6.8785    0.0981    5.2508 H         1 <0>         0.0000
     30 H8          3.3133   -2.7845   -2.2720 H         1 <0>         0.0000
     31 H9          2.9723   -4.4622   -2.7277 H         1 <0>         0.0000
     32 H10         4.1465   -4.1154   -1.4578 H         1 <0>         0.0000
     33 H11         1.1705   -5.4095    0.4319 H         1 <0>         0.0000
     34 H12         2.8879   -5.6535    0.1281 H         1 <0>         0.0000
     35 H13         1.7055   -5.9859   -1.1517 H         1 <0>         0.0000
     36 H14        -0.0909   -3.4848   -0.7807 H         1 <0>         0.0000
     37 H15         0.4812   -4.1517   -2.3109 H         1 <0>         0.0000
     38 H16         0.7762   -2.4505   -1.9146 H         1 <0>         0.0000
     39 H17        -0.4080   -1.0916    3.0410 H         1 <0>         0.0000
     40 H18         1.0149   -0.8317    4.0742 H         1 <0>         0.0000
     41 H19         0.3553   -2.4685    3.8664 H         1 <0>         0.0000
     42 H20         7.8774   -2.2707    2.5271 H         1 <0>         0.0000
     43 H21         6.9742   -0.9994    1.7170 H         1 <0>         0.0000
     44 H22         7.4659   -4.4552    1.1672 H         1 <0>         0.0000
     45 H23         6.1454   -4.3134    0.0001 H         1 <0>         0.0000
     46 H24         5.6479   -3.6501    2.4472 H         1 <0>         0.0000
     47 H25         2.5279   -1.8729   -0.0129 H         1 <0>         0.0000
     48 H26         5.3389   -0.9289    3.6068 H         1 <0>         0.0000
     49 H27         2.0322   -0.9706    1.9386 H         1 <0>         0.0000
     50 H28         3.8157   -4.1378    1.3829 H         1 <0>         0.0000
@<TRIPOS>BOND
     1    1   18 am
     2    1   20 2
     3    2   12 1
     4    2   17 am
     5    2   21 2
     6    3   13 1
     7    3   16 am
     8    3   22 2
     9    4   14 1
    10    5   14 1
    11    6   15 1
    12    7   15 1
    13    8   15 1
    14    9   16 1
    15   10   12 1
    16   10   14 1
    17   11   12 1
    18   11   18 1
    19   13   15 1
    20   13   17 1
    21   18   19 1
    22    1   23 1
    23    4   24 1
    24    4   25 1
    25    4   26 1
    26    5   27 1
    27    5   28 1
    28    5   29 1
    29    6   30 1
    30    6   31 1
    31    6   32 1
    32    7   33 1
    33    7   34 1
    34    7   35 1
    35    8   36 1
    36    8   37 1
    37    8   38 1
    38    9   39 1
    39    9   40 1
    40    9   41 1
    41   10   42 1
    42   10   43 1
    43   11   44 1
    44   11   45 1
    45   12   46 1
    46   13   47 1
    47   14   48 1
    48   16   49 1
    49   17   50 1
@<TRIPOS>MOLECULE
LIGAND
   50    49     0     0     0
SMALL
NO_CHARGES

@<TRIPOS>ATOM
      1 C1          7.5576   -2.3672    4.6544 C.2       1 <0>         0.0000
      2 C2          4.7609   -2.3304    1.0158 C.2       1 <0>         0.0000
      3 C3          1.6238   -2.1763    1.4428 C.2       1 <0>         0.0000
      4 C4          7.9668   -2.9805   -0.7195 C.3       1 <0>         0.0000
      5 C5          7.2752   -5.3485   -1.1277 C.3       1 <0>         0.0000
      6 C6          1.5629   -3.9738   -1.7656 C.3       1 <0>         0.0000
      7 C7          2.5490   -5.4199    0.0058 C.3       1 <0>         0.0000
      8 C8          0.3092   -4.3647    0.3632 C.3       1 <0>         0.0000
      9 C9          0.0532   -0.2939    1.7895 C.3       1 <0>         0.0000
     10 C10         6.4903   -4.2069    0.9698 C.3       1 <0>         0.0000
     11 C11         5.6912   -3.2135    3.1734 C.3       1 <0>         0.0000
     12 C12         5.9953   -2.9363    1.6910 C.3       1 <0>         0.0000
     13 C13         2.4245   -2.8999    0.3599 C.3       1 <0>         0.0000
     14 C14         6.8518   -4.0083   -0.5189 C.3       1 <0>         0.0000
     15 C15         1.7114   -4.1488   -0.2382 C.3       1 <0>         0.0000
     16 N1          0.8675   -1.1285    0.9389 N.am      1 <0>         0.0000
     17 N2          3.6959   -3.2182    0.9688 N.am      1 <0>         0.0000
     18 N3          6.8729   -3.3510    3.9817 N.am      1 <0>         0.0000
     19 O1          7.3583   -4.6406    4.0766 O.3       1 <0>         0.0000
     20 O2          7.2727   -1.1736    4.6825 O.2       1 <0>         0.0000
     21 O3          4.7482   -1.1914    0.5542 O.2       1 <0>         0.0000
     22 O4          1.6741   -2.4892    2.6314 O.2       1 <0>         0.0000
     23 H1          8.4389   -2.7411    5.2052 H         1 <0>         0.0000
     24 H2          8.8753   -3.2848   -0.1883 H         1 <0>         0.0000
     25 H3          7.6713   -1.9951   -0.3441 H         1 <0>         0.0000
     26 H4          8.2323   -2.8793   -1.7758 H         1 <0>         0.0000
     27 H5          8.1599   -5.7527   -0.6240 H         1 <0>         0.0000
     28 H6          6.4698   -6.0859   -1.0440 H         1 <0>         0.0000
     29 H7          7.5125   -5.2358   -2.1909 H         1 <0>         0.0000
     30 H8          0.9734   -3.0815   -2.0047 H         1 <0>         0.0000
     31 H9          1.0695   -4.8366   -2.2261 H         1 <0>         0.0000
     32 H10         2.5408   -3.8638   -2.2486 H         1 <0>         0.0000
     33 H11         2.6906   -5.5997    1.0780 H         1 <0>         0.0000
     34 H12         3.5464   -5.3400   -0.4391 H         1 <0>         0.0000
     35 H13         2.0579   -6.3043   -0.4152 H         1 <0>         0.0000
     36 H14         0.3656   -4.4943    1.4504 H         1 <0>         0.0000
     37 H15        -0.1731   -5.2588   -0.0460 H         1 <0>         0.0000
     38 H16        -0.3478   -3.5097    0.1741 H         1 <0>         0.0000
     39 H17        -0.9522   -0.7139    1.8767 H         1 <0>         0.0000
     40 H18        -0.0213    0.7135    1.3710 H         1 <0>         0.0000
     41 H19         0.4945   -0.2269    2.7876 H         1 <0>         0.0000
     42 H20         7.3727   -4.5944    1.4964 H         1 <0>         0.0000
     43 H21         5.7222   -4.9884    1.0394 H         1 <0>         0.0000
     44 H22         5.0986   -2.3982    3.6018 H         1 <0>         0.0000
     45 H23         5.1177   -4.1388    3.2917 H         1 <0>         0.0000
     46 H24         6.7931   -2.1847    1.6686 H         1 <0>         0.0000
     47 H25         2.6549   -2.1876   -0.4426 H         1 <0>         0.0000
     48 H26         5.9671   -3.6628   -1.0661 H         1 <0>         0.0000
     49 H27         0.8872   -0.9429   -0.0594 H         1 <0>         0.0000
     50 H28         3.8157   -4.1378    1.3829 H         1 <0>         0.0000
@<TRIPOS>BOND
     1    1   18 am
     2    1   20 2
     3    2   12 1
     4    2   17 am
     5    2   21 2
     6    3   13 1
     7    3   16 am
     8    3   22 2
     9    4   14 1
    10    5   14 1
    11    6   15 1
    12    7   15 1
    13    8   15 1
    14    9   16 1
    15   10   12 1
    16   10   14 1
    17   11   12 1
    18   11   18 1
    19   13   15 1
    20   13   17 1
    21   18   19 1
    22    1   23 1
    23    4   24 1
    24    4   25 1
    25    4   26 1
    26    5   27 1
    27    5   28 1
    28    5   29 1
    29    6   30 1
    30    6   31 1
    31    6   32 1
    32    7   33 1
    33    7   34 1
    34    7   35 1
    35    8   36 1
    36    8   37 1
    37    8   38 1
    38    9   39 1
    39    9   40 1
    40    9   41 1
    41   10   42 1
    42   10   43 1
    43   11   44 1
    44   11   45 1
    45   12   46 1
    46   13   47 1
    47   14   48 1
    48   16   49 1
    49   17   50 1
