@<TRIPOS>MOLECULE
LIGAND_00001
    39    41     1     0     0
SMALL
USER_CHARGES
****
Generated from the CSD

@<TRIPOS>ATOM
     1 S1      15.3270   2.7249  16.5040   S.o2      1 RES1   0.0000
     2 C2      16.0141   4.1827  15.7425   C.ar      1 RES1   0.0000
     3 C3      15.2778   4.8814  14.8009   C.ar      1 RES1   0.0000
     4 H4      14.2801   4.5496  14.5331   H         1 RES1   0.0000
     5 C5      15.8207   6.0053  14.2049   C.ar      1 RES1   0.0000
     6 H6      15.2324   6.5636  13.4850   H         1 RES1   0.0000
     7 C7      17.1055   6.4258  14.5237   C.ar      1 RES1   0.0000
     8 C8      17.8219   5.7272  15.4859   C.ar      1 RES1   0.0000
     9 H9      18.8156   6.0621  15.7641   H         1 RES1   0.0000
    10 C10     17.2846   4.6065  16.0923   C.ar      1 RES1   0.0000
    11 H11     17.8561   4.0626  16.8371   H         1 RES1   0.0000
    12 N12     17.7135   7.5671  13.9113   N.pl3     1 RES1   0.0000
    13 C13     17.5910   8.1690  12.6760   C.2       1 RES1   0.0000
    14 C14     16.7832   7.7466  11.5090   C.ar      1 RES1   0.0000
    15 C15     16.5095   6.4140  11.2179   C.ar      1 RES1   0.0000
    16 H16     16.9148   5.6302  11.8483   H         1 RES1   0.0000
    17 C17     15.7299   6.0709  10.1282   C.ar      1 RES1   0.0000
    18 H18     15.5147   5.0250   9.9366   H         1 RES1   0.0000
    19 C19     15.2195   7.0347   9.2751   C.ar      1 RES1   0.0000
    20 C20     14.3678   6.6513   8.0899   C.3       1 RES1   0.0000
    21 H21     13.8616   7.5228   7.6802   H         1 RES1   0.0000
    22 H22     14.9767   6.2110   7.3028   H         1 RES1   0.0000
    23 H23     13.6116   5.9248   8.3796   H         1 RES1   0.0000
    24 C24     15.5152   8.3598   9.5492   C.ar      1 RES1   0.0000
    25 H25     15.1354   9.1360   8.8934   H         1 RES1   0.0000
    26 C26     16.2845   8.7133  10.6432   C.ar      1 RES1   0.0000
    27 H27     16.5004   9.7601  10.8299   H         1 RES1   0.0000
    28 C28     18.3926   9.2944  12.7109   C.2       1 RES1   0.0000
    29 H29     18.5378  10.0220  11.9191   H         1 RES1   0.0000
    30 C30     18.9850   9.2940  13.9697   C.2       1 RES1   0.0000
    31 C31     19.9396  10.2761  14.5329   C.3       1 RES1   0.0000
    32 F32     20.2247  11.2510  13.6834   F         1 RES1   0.0000
    33 F33     21.0961   9.7233  14.8648   F         1 RES1   0.0000
    34 F34     19.4808  10.8617  15.6282   F         1 RES1   0.0000
    35 N35     18.6061   8.2561  14.7139   N.2       1 RES1   0.0000
    36 N36     14.5486   3.0953  17.7870   N.2       1 RES1  -1.0000
    37 H37     13.7449   3.7211  17.7333   H         1 RES1   0.0000
    38 O38     16.4747   1.8786  16.7962   O.2       1 RES1   0.0000
    39 O39     14.4498   2.1533  15.4931   O.2       1 RES1   0.0000
@<TRIPOS>BOND
     1     1     2    1
     2     1    36    1
     3     1    38    2
     4     1    39    2
     5     2     3   ar
     6     2    10   ar
     7     3     5   ar
     8     3     4    1
     9     5     7   ar
    10     5     6    1
    11     7     8   ar
    12     7    12    1
    13     8    10   ar
    14     8     9    1
    15    10    11    1
    16    12    13    1
    17    12    35    1
    18    13    14    1
    19    13    28    2
    20    14    15   ar
    21    14    26   ar
    22    15    17   ar
    23    15    16    1
    24    17    19   ar
    25    17    18    1
    26    19    20    1
    27    19    24   ar
    28    20    21    1
    29    20    22    1
    30    20    23    1
    31    24    26   ar
    32    24    25    1
    33    26    27    1
    34    28    30    1
    35    28    29    1
    36    30    31    1
    37    30    35    2
    38    31    32    1
    39    31    33    1
    40    31    34    1
    41    36    37    1
@<TRIPOS>SUBSTRUCTURE
     1 RES1        1 GROUP             0 ****  ****    0  
@<TRIPOS>MOLECULE
LIGAND_00002
    39    41     1     0     0
SMALL
USER_CHARGES
****
Generated from the CSD

@<TRIPOS>ATOM
     1 S1      21.1159   2.0769  12.8339   S.o2      1 RES1   0.0000
     2 C2      20.3436   3.6779  12.9656   C.ar      1 RES1   0.0000
     3 C3      19.9087   4.3301  11.8244   C.ar      1 RES1   0.0000
     4 H4      20.0277   3.8647  10.8516   H         1 RES1   0.0000
     5 C5      19.3205   5.5774  11.9318   C.ar      1 RES1   0.0000
     6 H6      18.9599   6.0753  11.0384   H         1 RES1   0.0000
     7 C7      19.1837   6.1921  13.1698   C.ar      1 RES1   0.0000
     8 C8      19.6046   5.5153  14.3063   C.ar      1 RES1   0.0000
     9 H9      19.4777   5.9728  15.2818   H         1 RES1   0.0000
    10 C10     20.1873   4.2650  14.2095   C.ar      1 RES1   0.0000
    11 H11     20.5207   3.7480  15.1033   H         1 RES1   0.0000
    12 N12     18.6051   7.4920  13.3214   N.pl3     1 RES1   0.0000
    13 C13     17.5910   8.1690  12.6760   C.2       1 RES1   0.0000
    14 C14     16.7832   7.7466  11.5090   C.ar      1 RES1   0.0000
    15 C15     16.4294   6.4225  11.2702   C.ar      1 RES1   0.0000
    16 H16     16.7687   5.6438  11.9445   H         1 RES1   0.0000
    17 C17     15.6533   6.0809  10.1777   C.ar      1 RES1   0.0000
    18 H18     15.3744   5.0433  10.0271   H         1 RES1   0.0000
    19 C19     15.2258   7.0355   9.2704   C.ar      1 RES1   0.0000
    20 C20     14.3773   6.6540   8.0824   C.3       1 RES1   0.0000
    21 H21     13.9382   7.5366   7.6222   H         1 RES1   0.0000
    22 H22     14.9732   6.1399   7.3309   H         1 RES1   0.0000
    23 H23     13.5689   5.9916   8.3849   H         1 RES1   0.0000
    24 C24     15.6015   8.3500   9.4931   C.ar      1 RES1   0.0000
    25 H25     15.2877   9.1182   8.7943   H         1 RES1   0.0000
    26 C26     16.3680   8.7028  10.5892   C.ar      1 RES1   0.0000
    27 H27     16.6477   9.7410  10.7349   H         1 RES1   0.0000
    28 C28     17.4466   9.3744  13.3367   C.2       1 RES1   0.0000
    29 H29     16.7351  10.1632  13.1158   H         1 RES1   0.0000
    30 C30     18.4127   9.3713  14.3379   C.2       1 RES1   0.0000
    31 C31     18.6984  10.4254  15.3380   C.3       1 RES1   0.0000
    32 F32     17.9014  11.4751  15.2105   F         1 RES1   0.0000
    33 F33     19.9363  10.8863  15.2467   F         1 RES1   0.0000
    34 F34     18.5526   9.9988  16.5830   F         1 RES1   0.0000
    35 N35     19.1383   8.2541  14.3462   N.2       1 RES1   0.0000
    36 N36     20.0590   0.9526  12.9237   N.2       1 RES1  -1.0000
    37 H37     19.3110   0.8993  12.2322   H         1 RES1   0.0000
    38 O38     22.0558   2.0219  13.9439   O.2       1 RES1   0.0000
    39 O39     21.7770   2.0864  11.5373   O.2       1 RES1   0.0000
@<TRIPOS>BOND
     1     1     2    1
     2     1    36    1
     3     1    38    2
     4     1    39    2
     5     2     3   ar
     6     2    10   ar
     7     3     5   ar
     8     3     4    1
     9     5     7   ar
    10     5     6    1
    11     7     8   ar
    12     7    12    1
    13     8    10   ar
    14     8     9    1
    15    10    11    1
    16    12    13    1
    17    12    35    1
    18    13    14    1
    19    13    28    2
    20    14    15   ar
    21    14    26   ar
    22    15    17   ar
    23    15    16    1
    24    17    19   ar
    25    17    18    1
    26    19    20    1
    27    19    24   ar
    28    20    21    1
    29    20    22    1
    30    20    23    1
    31    24    26   ar
    32    24    25    1
    33    26    27    1
    34    28    30    1
    35    28    29    1
    36    30    31    1
    37    30    35    2
    38    31    32    1
    39    31    33    1
    40    31    34    1
    41    36    37    1
@<TRIPOS>SUBSTRUCTURE
     1 RES1        1 GROUP             0 ****  ****    0  
@<TRIPOS>MOLECULE
LIGAND_00003
    39    41     1     0     0
SMALL
USER_CHARGES
****
Generated from the CSD

@<TRIPOS>ATOM
     1 S1      15.0128   2.8621  16.4479   S.o2      1 RES1   0.0000
     2 C2      15.8385   4.2441  15.6827   C.ar      1 RES1   0.0000
     3 C3      17.1399   4.5539  16.0394   C.ar      1 RES1   0.0000
     4 H4      17.6616   3.9516  16.7758   H         1 RES1   0.0000
     5 C5      17.7716   5.6345  15.4507   C.ar      1 RES1   0.0000
     6 H6      18.7988   5.8604  15.7151   H         1 RES1   0.0000
     7 C7      17.1055   6.4258  14.5237   C.ar      1 RES1   0.0000
     8 C8      15.8088   6.0884  14.1605   C.ar      1 RES1   0.0000
     9 H9      15.2877   6.6820  13.4168   H         1 RES1   0.0000
    10 C10     15.1717   5.0057  14.7385   C.ar      1 RES1   0.0000
    11 H11     14.1550   4.7555  14.4539   H         1 RES1   0.0000
    12 N12     17.7135   7.5671  13.9113   N.pl3     1 RES1   0.0000
    13 C13     17.5910   8.1690  12.6760   C.2       1 RES1   0.0000
    14 C14     16.7832   7.7466  11.5090   C.ar      1 RES1   0.0000
    15 C15     16.5310   6.4131  11.2033   C.ar      1 RES1   0.0000
    16 H16     16.9541   5.6289  11.8216   H         1 RES1   0.0000
    17 C17     15.7506   6.0695  10.1145   C.ar      1 RES1   0.0000
    18 H18     15.5525   5.0223   9.9114   H         1 RES1   0.0000
    19 C19     15.2178   7.0344   9.2764   C.ar      1 RES1   0.0000
    20 C20     14.3654   6.6504   8.0919   C.3       1 RES1   0.0000
    21 H21     13.8413   7.5178   7.6961   H         1 RES1   0.0000
    22 H22     14.9767   6.2304   7.2957   H         1 RES1   0.0000
    23 H23     13.6238   5.9072   8.3774   H         1 RES1   0.0000
    24 C24     15.4920   8.3611   9.5648   C.ar      1 RES1   0.0000
    25 H25     15.0944   9.1383   8.9209   H         1 RES1   0.0000
    26 C26     16.2621   8.7147  10.6582   C.ar      1 RES1   0.0000
    27 H27     16.4608   9.7629  10.8564   H         1 RES1   0.0000
    28 C28     18.3926   9.2944  12.7109   C.2       1 RES1   0.0000
    29 H29     18.5378  10.0220  11.9191   H         1 RES1   0.0000
    30 C30     18.9850   9.2940  13.9697   C.2       1 RES1   0.0000
    31 C31     19.9396  10.2761  14.5329   C.3       1 RES1   0.0000
    32 F32     20.2247  11.2510  13.6834   F         1 RES1   0.0000
    33 F33     21.0961   9.7233  14.8648   F         1 RES1   0.0000
    34 F34     19.4808  10.8617  15.6282   F         1 RES1   0.0000
    35 N35     18.6061   8.2561  14.7139   N.2       1 RES1   0.0000
    36 N36     15.2537   1.5672  15.6391   N.2       1 RES1  -1.0000
    37 H37     16.2028   1.2173  15.5071   H         1 RES1   0.0000
    38 O38     13.6049   3.2307  16.4669   O.2       1 RES1   0.0000
    39 O39     15.5891   2.7742  17.7815   O.2       1 RES1   0.0000
@<TRIPOS>BOND
     1     1     2    1
     2     1    36    1
     3     1    38    2
     4     1    39    2
     5     2     3   ar
     6     2    10   ar
     7     3     5   ar
     8     3     4    1
     9     5     7   ar
    10     5     6    1
    11     7     8   ar
    12     7    12    1
    13     8    10   ar
    14     8     9    1
    15    10    11    1
    16    12    13    1
    17    12    35    1
    18    13    14    1
    19    13    28    2
    20    14    15   ar
    21    14    26   ar
    22    15    17   ar
    23    15    16    1
    24    17    19   ar
    25    17    18    1
    26    19    20    1
    27    19    24   ar
    28    20    21    1
    29    20    22    1
    30    20    23    1
    31    24    26   ar
    32    24    25    1
    33    26    27    1
    34    28    30    1
    35    28    29    1
    36    30    31    1
    37    30    35    2
    38    31    32    1
    39    31    33    1
    40    31    34    1
    41    36    37    1
@<TRIPOS>SUBSTRUCTURE
     1 RES1        1 GROUP             0 ****  ****    0  
@<TRIPOS>MOLECULE
LIGAND_00004
    39    41     1     0     0
SMALL
USER_CHARGES
****
Generated from the CSD

@<TRIPOS>ATOM
     1 S1      20.9366   2.0314  12.5398   S.o2      1 RES1   0.0000
     2 C2      20.2684   3.6655  12.7857   C.ar      1 RES1   0.0000
     3 C3      20.1725   4.1863  14.0649   C.ar      1 RES1   0.0000
     4 H4      20.5123   3.6063  14.9167   H         1 RES1   0.0000
     5 C5      19.6425   5.4503  14.2507   C.ar      1 RES1   0.0000
     6 H6      19.5902   5.8646  15.2515   H         1 RES1   0.0000
     7 C7      19.1837   6.1921  13.1698   C.ar      1 RES1   0.0000
     8 C8      19.3075   5.6646  11.8916   C.ar      1 RES1   0.0000
     9 H9      18.9787   6.2458  11.0366   H         1 RES1   0.0000
    10 C10     19.8426   4.4047  11.6956   C.ar      1 RES1   0.0000
    11 H11     19.9272   3.9981  10.6932   H         1 RES1   0.0000
    12 N12     18.6051   7.4920  13.3214   N.pl3     1 RES1   0.0000
    13 C13     17.5910   8.1690  12.6760   C.2       1 RES1   0.0000
    14 C14     16.7832   7.7466  11.5090   C.ar      1 RES1   0.0000
    15 C15     16.4230   6.4235  11.2743   C.ar      1 RES1   0.0000
    16 H16     16.7569   5.6455  11.9520   H         1 RES1   0.0000
    17 C17     15.6471   6.0820  10.1816   C.ar      1 RES1   0.0000
    18 H18     15.3631   5.0454  10.0342   H         1 RES1   0.0000
    19 C19     15.2264   7.0356   9.2700   C.ar      1 RES1   0.0000
    20 C20     14.3780   6.6541   8.0818   C.3       1 RES1   0.0000
    21 H21     13.9445   7.5374   7.6176   H         1 RES1   0.0000
    22 H22     14.9727   6.1343   7.3333   H         1 RES1   0.0000
    23 H23     13.5657   5.9971   8.3852   H         1 RES1   0.0000
    24 C24     15.6084   8.3489   9.4887   C.ar      1 RES1   0.0000
    25 H25     15.2999   9.1162   8.7866   H         1 RES1   0.0000
    26 C26     16.3747   8.7016  10.5850   C.ar      1 RES1   0.0000
    27 H27     16.6595   9.7389  10.7275   H         1 RES1   0.0000
    28 C28     17.4466   9.3744  13.3367   C.2       1 RES1   0.0000
    29 H29     16.7351  10.1632  13.1158   H         1 RES1   0.0000
    30 C30     18.4127   9.3713  14.3379   C.2       1 RES1   0.0000
    31 C31     18.6984  10.4254  15.3380   C.3       1 RES1   0.0000
    32 F32     17.9014  11.4751  15.2105   F         1 RES1   0.0000
    33 F33     19.9363  10.8863  15.2467   F         1 RES1   0.0000
    34 F34     18.5526   9.9988  16.5830   F         1 RES1   0.0000
    35 N35     19.1383   8.2541  14.3462   N.2       1 RES1   0.0000
    36 N36     22.4674   2.0933  12.3353   N.2       1 RES1  -1.0000
    37 H37     23.0652   2.4727  13.0697   H         1 RES1   0.0000
    38 O38     20.2560   1.5223  11.3582   O.2       1 RES1   0.0000
    39 O39     20.5882   1.2993  13.7485   O.2       1 RES1   0.0000
@<TRIPOS>BOND
     1     1     2    1
     2     1    36    1
     3     1    38    2
     4     1    39    2
     5     2     3   ar
     6     2    10   ar
     7     3     5   ar
     8     3     4    1
     9     5     7   ar
    10     5     6    1
    11     7     8   ar
    12     7    12    1
    13     8    10   ar
    14     8     9    1
    15    10    11    1
    16    12    13    1
    17    12    35    1
    18    13    14    1
    19    13    28    2
    20    14    15   ar
    21    14    26   ar
    22    15    17   ar
    23    15    16    1
    24    17    19   ar
    25    17    18    1
    26    19    20    1
    27    19    24   ar
    28    20    21    1
    29    20    22    1
    30    20    23    1
    31    24    26   ar
    32    24    25    1
    33    26    27    1
    34    28    30    1
    35    28    29    1
    36    30    31    1
    37    30    35    2
    38    31    32    1
    39    31    33    1
    40    31    34    1
    41    36    37    1
@<TRIPOS>SUBSTRUCTURE
     1 RES1        1 GROUP             0 ****  ****    0  
@<TRIPOS>MOLECULE
LIGAND_00005
    39    41     1     0     0
SMALL
USER_CHARGES
****
Generated from the CSD

@<TRIPOS>ATOM
     1 S1      23.0957   4.3633  10.5262   S.o2      1 RES1   0.0000
     2 C2      21.8350   5.3744  11.2783   C.ar      1 RES1   0.0000
     3 C3      20.5032   5.0132  11.1665   C.ar      1 RES1   0.0000
     4 H4      20.2260   4.1111  10.6310   H         1 RES1   0.0000
     5 C5      19.5285   5.8078  11.7424   C.ar      1 RES1   0.0000
     6 H6      18.4881   5.5097  11.6729   H         1 RES1   0.0000
     7 C7      19.8704   6.9764  12.4106   C.ar      1 RES1   0.0000
     8 C8      21.2117   7.3127  12.5329   C.ar      1 RES1   0.0000
     9 H9      21.4935   8.2082  13.0766   H         1 RES1   0.0000
    10 C10     22.1937   6.5206  11.9666   C.ar      1 RES1   0.0000
    11 H11     23.2387   6.7969  12.0607   H         1 RES1   0.0000
    12 N12     18.8915   7.8395  12.9973   N.pl3     1 RES1   0.0000
    13 C13     17.5910   8.1690  12.6760   C.2       1 RES1   0.0000
    14 C14     16.7832   7.7466  11.5090   C.ar      1 RES1   0.0000
    15 C15     16.3417   6.4403  11.3245   C.ar      1 RES1   0.0000
    16 H16     16.6083   5.6744  12.0445   H         1 RES1   0.0000
    17 C17     15.5694   6.0998  10.2289   C.ar      1 RES1   0.0000
    18 H18     15.2209   5.0782  10.1207   H         1 RES1   0.0000
    19 C19     15.2329   7.0357   9.2654   C.ar      1 RES1   0.0000
    20 C20     14.3879   6.6558   8.0743   C.3       1 RES1   0.0000
    21 H21     14.0240   7.5430   7.5605   H         1 RES1   0.0000
    22 H22     14.9634   6.0645   7.3650   H         1 RES1   0.0000
    23 H23     13.5274   6.0676   8.3862   H         1 RES1   0.0000
    24 C24     15.6960   8.3301   9.4349   C.ar      1 RES1   0.0000
    25 H25     15.4546   9.0826   8.6917   H         1 RES1   0.0000
    26 C26     16.4593   8.6825  10.5333   C.ar      1 RES1   0.0000
    27 H27     16.8088   9.7045  10.6366   H         1 RES1   0.0000
    28 C28     17.1426   9.0058  13.6805   C.2       1 RES1   0.0000
    29 H29     16.1595   9.4559  13.7702   H         1 RES1   0.0000
    30 C30     18.2194   9.1610  14.5478   C.2       1 RES1   0.0000
    31 C31     18.2850   9.9612  15.7921   C.3       1 RES1   0.0000
    32 F32     17.1458  10.5820  16.0567   F         1 RES1   0.0000
    33 F33     19.2161  10.9012  15.7398   F         1 RES1   0.0000
    34 F34     18.5614   9.2246  16.8571   F         1 RES1   0.0000
    35 N35     19.2953   8.4804  14.1556   N.2       1 RES1   0.0000
    36 N36     23.5886   3.2817  11.5143   N.2       1 RES1  -1.0000
    37 H37     22.9347   2.5901  11.8813   H         1 RES1   0.0000
    38 O38     24.1585   5.2923  10.1712   O.2       1 RES1   0.0000
    39 O39     22.4544   3.7710   9.3618   O.2       1 RES1   0.0000
@<TRIPOS>BOND
     1     1     2    1
     2     1    36    1
     3     1    38    2
     4     1    39    2
     5     2     3   ar
     6     2    10   ar
     7     3     5   ar
     8     3     4    1
     9     5     7   ar
    10     5     6    1
    11     7     8   ar
    12     7    12    1
    13     8    10   ar
    14     8     9    1
    15    10    11    1
    16    12    13    1
    17    12    35    1
    18    13    14    1
    19    13    28    2
    20    14    15   ar
    21    14    26   ar
    22    15    17   ar
    23    15    16    1
    24    17    19   ar
    25    17    18    1
    26    19    20    1
    27    19    24   ar
    28    20    21    1
    29    20    22    1
    30    20    23    1
    31    24    26   ar
    32    24    25    1
    33    26    27    1
    34    28    30    1
    35    28    29    1
    36    30    31    1
    37    30    35    2
    38    31    32    1
    39    31    33    1
    40    31    34    1
    41    36    37    1
@<TRIPOS>SUBSTRUCTURE
     1 RES1        1 GROUP             0 ****  ****    0  
@<TRIPOS>MOLECULE
LIGAND_00006
    39    41     1     0     0
SMALL
USER_CHARGES
****
Generated from the CSD

@<TRIPOS>ATOM
     1 S1      22.6060  10.9493   8.5914   S.o2      1 RES1   0.0000
     2 C2      21.4577  10.3084   9.7948   C.ar      1 RES1   0.0000
     3 C3      20.0998  10.3157   9.5249   C.ar      1 RES1   0.0000
     4 H4      19.7339  10.7012   8.5790   H         1 RES1   0.0000
     5 C5      19.2127   9.8276  10.4672   C.ar      1 RES1   0.0000
     6 H6      18.1517   9.8133  10.2433   H         1 RES1   0.0000
     7 C7      19.6684   9.3528  11.6904   C.ar      1 RES1   0.0000
     8 C8      21.0345   9.3317  11.9364   C.ar      1 RES1   0.0000
     9 H9      21.4048   8.9373  12.8767   H         1 RES1   0.0000
    10 C10     21.9294   9.8110  10.9974   C.ar      1 RES1   0.0000
    11 H11     22.9947   9.7979  11.2030   H         1 RES1   0.0000
    12 N12     18.7825   8.8639  12.7021   N.pl3     1 RES1   0.0000
    13 C13     17.5910   8.1690  12.6760   C.2       1 RES1   0.0000
    14 C14     16.7832   7.7466  11.5090   C.ar      1 RES1   0.0000
    15 C15     16.6069   6.4140  11.1505   C.ar      1 RES1   0.0000
    16 H16     17.0924   5.6325  11.7246   H         1 RES1   0.0000
    17 C17     15.8233   6.0686  10.0644   C.ar      1 RES1   0.0000
    18 H18     15.6857   5.0207   9.8198   H         1 RES1   0.0000
    19 C19     15.2119   7.0328   9.2810   C.ar      1 RES1   0.0000
    20 C20     14.3568   6.6467   8.0992   C.3       1 RES1   0.0000
    21 H21     13.7707   7.4954   7.7531   H         1 RES1   0.0000
    22 H22     14.9737   6.3002   7.2725   H         1 RES1   0.0000
    23 H23     13.6698   5.8469   8.3675   H         1 RES1   0.0000
    24 C24     15.4103   8.3607   9.6216   C.ar      1 RES1   0.0000
    25 H25     14.9499   9.1380   9.0210   H         1 RES1   0.0000
    26 C26     16.1829   8.7153  10.7128   C.ar      1 RES1   0.0000
    27 H27     16.3210   9.7645  10.9525   H         1 RES1   0.0000
    28 C28     17.2581   7.9188  13.9940   C.2       1 RES1   0.0000
    29 H29     16.3895   7.3825  14.3614   H         1 RES1   0.0000
    30 C30     18.2635   8.5092  14.7532   C.2       1 RES1   0.0000
    31 C31     18.3970   8.5438  16.2276   C.3       1 RES1   0.0000
    32 F32     17.4048   7.9180  16.8416   F         1 RES1   0.0000
    33 F33     18.4085   9.7788  16.7050   F         1 RES1   0.0000
    34 F34     19.5138   7.9722  16.6512   F         1 RES1   0.0000
    35 N35     19.1920   9.1004  14.0028   N.2       1 RES1   0.0000
    36 N36     23.0681   9.8313   7.6293   N.2       1 RES1  -1.0000
    37 H37     22.3854   9.3419   7.0506   H         1 RES1   0.0000
    38 O38     23.7134  11.4773   9.3745   O.2       1 RES1   0.0000
    39 O39     21.8688  11.9886   7.8880   O.2       1 RES1   0.0000
@<TRIPOS>BOND
     1     1     2    1
     2     1    36    1
     3     1    38    2
     4     1    39    2
     5     2     3   ar
     6     2    10   ar
     7     3     5   ar
     8     3     4    1
     9     5     7   ar
    10     5     6    1
    11     7     8   ar
    12     7    12    1
    13     8    10   ar
    14     8     9    1
    15    10    11    1
    16    12    13    1
    17    12    35    1
    18    13    14    1
    19    13    28    2
    20    14    15   ar
    21    14    26   ar
    22    15    17   ar
    23    15    16    1
    24    17    19   ar
    25    17    18    1
    26    19    20    1
    27    19    24   ar
    28    20    21    1
    29    20    22    1
    30    20    23    1
    31    24    26   ar
    32    24    25    1
    33    26    27    1
    34    28    30    1
    35    28    29    1
    36    30    31    1
    37    30    35    2
    38    31    32    1
    39    31    33    1
    40    31    34    1
    41    36    37    1
@<TRIPOS>SUBSTRUCTURE
     1 RES1        1 GROUP             0 ****  ****    0  
@<TRIPOS>MOLECULE
LIGAND_00007
    39    41     1     0     0
SMALL
USER_CHARGES
****
Generated from the CSD

@<TRIPOS>ATOM
     1 S1      12.7767   5.4458  16.9527   S.o2      1 RES1   0.0000
     2 C2      14.1548   6.1922  16.1036   C.ar      1 RES1   0.0000
     3 C3      14.7875   7.2950  16.6516   C.ar      1 RES1   0.0000
     4 H4      14.4529   7.6996  17.6012   H         1 RES1   0.0000
     5 C5      15.8490   7.8770  15.9825   C.ar      1 RES1   0.0000
     6 H6      16.3572   8.7263  16.4258   H         1 RES1   0.0000
     7 C7      16.2709   7.3811  14.7556   C.ar      1 RES1   0.0000
     8 C8      15.6404   6.2613  14.2307   C.ar      1 RES1   0.0000
     9 H9      15.9789   5.8475  13.2867   H         1 RES1   0.0000
    10 C10     14.5828   5.6685  14.8958   C.ar      1 RES1   0.0000
    11 H11     14.0913   4.7986  14.4728   H         1 RES1   0.0000
    12 N12     17.3473   7.9696  14.0191   N.pl3     1 RES1   0.0000
    13 C13     17.5910   8.1690  12.6760   C.2       1 RES1   0.0000
    14 C14     16.7832   7.7466  11.5090   C.ar      1 RES1   0.0000
    15 C15     16.6151   6.4146  11.1446   C.ar      1 RES1   0.0000
    16 H16     17.1073   5.6337  11.7138   H         1 RES1   0.0000
    17 C17     15.8312   6.0689  10.0589   C.ar      1 RES1   0.0000
    18 H18     15.7001   5.0212   9.8097   H         1 RES1   0.0000
    19 C19     15.2113   7.0326   9.2815   C.ar      1 RES1   0.0000
    20 C20     14.3559   6.6462   8.1000   C.3       1 RES1   0.0000
    21 H21     13.7631   7.4925   7.7594   H         1 RES1   0.0000
    22 H22     14.9731   6.3079   7.2702   H         1 RES1   0.0000
    23 H23     13.6750   5.8405   8.3662   H         1 RES1   0.0000
    24 C24     15.4014   8.3602   9.6279   C.ar      1 RES1   0.0000
    25 H25     14.9343   9.1372   9.0321   H         1 RES1   0.0000
    26 C26     16.1743   8.7149  10.7189   C.ar      1 RES1   0.0000
    27 H27     16.3059   9.7639  10.9632   H         1 RES1   0.0000
    28 C28     18.7811   8.8673  12.5965   C.2       1 RES1   0.0000
    29 H29     19.2818   9.2113  11.6975   H         1 RES1   0.0000
    30 C30     19.2106   9.0272  13.9102   C.2       1 RES1   0.0000
    31 C31     20.4350   9.7026  14.3976   C.3       1 RES1   0.0000
    32 F32     21.1699  10.1939  13.4118   F         1 RES1   0.0000
    33 F33     21.2251   8.8868  15.0783   F         1 RES1   0.0000
    34 F34     20.1692  10.7191  15.2034   F         1 RES1   0.0000
    35 N35     18.3734   8.4837  14.7925   N.2       1 RES1   0.0000
    36 N36     13.2646   4.3439  17.9206   N.2       1 RES1  -1.0000
    37 H37     13.8984   4.5799  18.6843   H         1 RES1   0.0000
    38 O38     11.9366   4.9009  15.8963   O.2       1 RES1   0.0000
    39 O39     12.1404   6.5420  17.6680   O.2       1 RES1   0.0000
@<TRIPOS>BOND
     1     1     2    1
     2     1    36    1
     3     1    38    2
     4     1    39    2
     5     2     3   ar
     6     2    10   ar
     7     3     5   ar
     8     3     4    1
     9     5     7   ar
    10     5     6    1
    11     7     8   ar
    12     7    12    1
    13     8    10   ar
    14     8     9    1
    15    10    11    1
    16    12    13    1
    17    12    35    1
    18    13    14    1
    19    13    28    2
    20    14    15   ar
    21    14    26   ar
    22    15    17   ar
    23    15    16    1
    24    17    19   ar
    25    17    18    1
    26    19    20    1
    27    19    24   ar
    28    20    21    1
    29    20    22    1
    30    20    23    1
    31    24    26   ar
    32    24    25    1
    33    26    27    1
    34    28    30    1
    35    28    29    1
    36    30    31    1
    37    30    35    2
    38    31    32    1
    39    31    33    1
    40    31    34    1
    41    36    37    1
@<TRIPOS>SUBSTRUCTURE
     1 RES1        1 GROUP             0 ****  ****    0  
@<TRIPOS>MOLECULE
LIGAND_00008
    39    41     1     0     0
SMALL
USER_CHARGES
****
Generated from the CSD

@<TRIPOS>ATOM
     1 S1      22.8789   4.0941  10.5605   S.o2      1 RES1   0.0000
     2 C2      21.7026   5.2311  11.2681   C.ar      1 RES1   0.0000
     3 C3      22.1476   6.3801  11.8995   C.ar      1 RES1   0.0000
     4 H4      23.2097   6.5949  11.9556   H         1 RES1   0.0000
     5 C5      21.2308   7.2530  12.4568   C.ar      1 RES1   0.0000
     6 H6      21.5813   8.1636  12.9301   H         1 RES1   0.0000
     7 C7      19.8704   6.9764  12.4106   C.ar      1 RES1   0.0000
     8 C8      19.4393   5.8315  11.7545   C.ar      1 RES1   0.0000
     9 H9      18.3777   5.6187  11.6871   H         1 RES1   0.0000
    10 C10     20.3482   4.9566  11.1881   C.ar      1 RES1   0.0000
    11 H11     20.0013   4.0601  10.6849   H         1 RES1   0.0000
    12 N12     18.8915   7.8395  12.9973   N.pl3     1 RES1   0.0000
    13 C13     17.5910   8.1690  12.6760   C.2       1 RES1   0.0000
    14 C14     16.7832   7.7466  11.5090   C.ar      1 RES1   0.0000
    15 C15     16.2916   6.4545  11.3541   C.ar      1 RES1   0.0000
    16 H16     16.5166   5.6991  12.0990   H         1 RES1   0.0000
    17 C17     15.5216   6.1145  10.2567   C.ar      1 RES1   0.0000
    18 H18     15.1333   5.1050  10.1716   H         1 RES1   0.0000
    19 C19     15.2370   7.0355   9.2626   C.ar      1 RES1   0.0000
    20 C20     14.3941   6.6563   8.0699   C.3       1 RES1   0.0000
    21 H21     14.0739   7.5426   7.5261   H         1 RES1   0.0000
    22 H22     14.9550   6.0225   7.3860   H         1 RES1   0.0000
    23 H23     13.5060   6.1124   8.3847   H         1 RES1   0.0000
    24 C24     15.7499   8.3144   9.4032   C.ar      1 RES1   0.0000
    25 H25     15.5498   9.0547   8.6359   H         1 RES1   0.0000
    26 C26     16.5114   8.6668  10.5030   C.ar      1 RES1   0.0000
    27 H27     16.9007   9.6764  10.5831   H         1 RES1   0.0000
    28 C28     17.1426   9.0058  13.6805   C.2       1 RES1   0.0000
    29 H29     16.1595   9.4559  13.7702   H         1 RES1   0.0000
    30 C30     18.2194   9.1610  14.5478   C.2       1 RES1   0.0000
    31 C31     18.2850   9.9612  15.7921   C.3       1 RES1   0.0000
    32 F32     17.1458  10.5820  16.0567   F         1 RES1   0.0000
    33 F33     19.2161  10.9012  15.7398   F         1 RES1   0.0000
    34 F34     18.5614   9.2246  16.8571   F         1 RES1   0.0000
    35 N35     19.2953   8.4804  14.1556   N.2       1 RES1   0.0000
    36 N36     23.1743   4.4611   9.0884   N.2       1 RES1  -1.0000
    37 H37     23.5753   5.3709   8.8601   H         1 RES1   0.0000
    38 O38     22.2501   2.7862  10.6732   O.2       1 RES1   0.0000
    39 O39     24.0671   4.2203  11.3914   O.2       1 RES1   0.0000
@<TRIPOS>BOND
     1     1     2    1
     2     1    36    1
     3     1    38    2
     4     1    39    2
     5     2     3   ar
     6     2    10   ar
     7     3     5   ar
     8     3     4    1
     9     5     7   ar
    10     5     6    1
    11     7     8   ar
    12     7    12    1
    13     8    10   ar
    14     8     9    1
    15    10    11    1
    16    12    13    1
    17    12    35    1
    18    13    14    1
    19    13    28    2
    20    14    15   ar
    21    14    26   ar
    22    15    17   ar
    23    15    16    1
    24    17    19   ar
    25    17    18    1
    26    19    20    1
    27    19    24   ar
    28    20    21    1
    29    20    22    1
    30    20    23    1
    31    24    26   ar
    32    24    25    1
    33    26    27    1
    34    28    30    1
    35    28    29    1
    36    30    31    1
    37    30    35    2
    38    31    32    1
    39    31    33    1
    40    31    34    1
    41    36    37    1
@<TRIPOS>SUBSTRUCTURE
     1 RES1        1 GROUP             0 ****  ****    0  
@<TRIPOS>MOLECULE
LIGAND_00009
    39    41     1     0     0
SMALL
USER_CHARGES
****
Generated from the CSD

@<TRIPOS>ATOM
     1 S1      23.1124   4.3125  10.6288   S.o2      1 RES1   0.0000
     2 C2      21.8366   5.3391  11.3329   C.ar      1 RES1   0.0000
     3 C3      20.6511   5.5353  10.6453   C.ar      1 RES1   0.0000
     4 H4      20.4928   5.0577   9.6840   H         1 RES1   0.0000
     5 C5      19.6693   6.3422  11.1914   C.ar      1 RES1   0.0000
     6 H6      18.7326   6.4751  10.6611   H         1 RES1   0.0000
     7 C7      19.8704   6.9764  12.4106   C.ar      1 RES1   0.0000
     8 C8      21.0556   6.7515  13.0976   C.ar      1 RES1   0.0000
     9 H9      21.2131   7.2188  14.0640   H         1 RES1   0.0000
    10 C10     22.0399   5.9408  12.5629   C.ar      1 RES1   0.0000
    11 H11     22.9662   5.7783  13.1041   H         1 RES1   0.0000
    12 N12     18.8915   7.8395  12.9973   N.pl3     1 RES1   0.0000
    13 C13     17.5910   8.1690  12.6760   C.2       1 RES1   0.0000
    14 C14     16.7832   7.7466  11.5090   C.ar      1 RES1   0.0000
    15 C15     16.4142   6.4250  11.2799   C.ar      1 RES1   0.0000
    16 H16     16.7408   5.6480  11.9623   H         1 RES1   0.0000
    17 C17     15.6387   6.0836  10.1868   C.ar      1 RES1   0.0000
    18 H18     15.3476   5.0483  10.0438   H         1 RES1   0.0000
    19 C19     15.2271   7.0356   9.2695   C.ar      1 RES1   0.0000
    20 C20     14.3791   6.6544   8.0810   C.3       1 RES1   0.0000
    21 H21     13.9530   7.5384   7.6113   H         1 RES1   0.0000
    22 H22     14.9719   6.1266   7.3366   H         1 RES1   0.0000
    23 H23     13.5613   6.0046   8.3855   H         1 RES1   0.0000
    24 C24     15.6179   8.3472   9.4827   C.ar      1 RES1   0.0000
    25 H25     15.3168   9.1132   8.7760   H         1 RES1   0.0000
    26 C26     16.3839   8.6999  10.5793   C.ar      1 RES1   0.0000
    27 H27     16.6758   9.7358  10.7173   H         1 RES1   0.0000
    28 C28     17.1426   9.0058  13.6805   C.2       1 RES1   0.0000
    29 H29     16.1595   9.4559  13.7702   H         1 RES1   0.0000
    30 C30     18.2194   9.1610  14.5478   C.2       1 RES1   0.0000
    31 C31     18.2850   9.9612  15.7921   C.3       1 RES1   0.0000
    32 F32     17.1458  10.5820  16.0567   F         1 RES1   0.0000
    33 F33     19.2161  10.9012  15.7398   F         1 RES1   0.0000
    34 F34     18.5614   9.2246  16.8571   F         1 RES1   0.0000
    35 N35     19.2953   8.4804  14.1556   N.2       1 RES1   0.0000
    36 N36     22.9321   2.8412  11.0669   N.2       1 RES1  -1.0000
    37 H37     22.0787   2.3377  10.8244   H         1 RES1   0.0000
    38 O38     24.3606   4.8728  11.1253   O.2       1 RES1   0.0000
    39 O39     22.9616   4.4637   9.1891   O.2       1 RES1   0.0000
@<TRIPOS>BOND
     1     1     2    1
     2     1    36    1
     3     1    38    2
     4     1    39    2
     5     2     3   ar
     6     2    10   ar
     7     3     5   ar
     8     3     4    1
     9     5     7   ar
    10     5     6    1
    11     7     8   ar
    12     7    12    1
    13     8    10   ar
    14     8     9    1
    15    10    11    1
    16    12    13    1
    17    12    35    1
    18    13    14    1
    19    13    28    2
    20    14    15   ar
    21    14    26   ar
    22    15    17   ar
    23    15    16    1
    24    17    19   ar
    25    17    18    1
    26    19    20    1
    27    19    24   ar
    28    20    21    1
    29    20    22    1
    30    20    23    1
    31    24    26   ar
    32    24    25    1
    33    26    27    1
    34    28    30    1
    35    28    29    1
    36    30    31    1
    37    30    35    2
    38    31    32    1
    39    31    33    1
    40    31    34    1
    41    36    37    1
@<TRIPOS>SUBSTRUCTURE
     1 RES1        1 GROUP             0 ****  ****    0  
@<TRIPOS>MOLECULE
LIGAND_00010
    39    41     1     0     0
SMALL
USER_CHARGES
****
Generated from the CSD

@<TRIPOS>ATOM
     1 S1      22.5390  11.0375   8.5754   S.o2      1 RES1   0.0000
     2 C2      21.4259  10.3626   9.7931   C.ar      1 RES1   0.0000
     3 C3      20.3195   9.6352   9.3885   C.ar      1 RES1   0.0000
     4 H4      20.1341   9.4666   8.3328   H         1 RES1   0.0000
     5 C5      19.4530   9.1237  10.3375   C.ar      1 RES1   0.0000
     6 H6      18.6002   8.5347  10.0182   H         1 RES1   0.0000
     7 C7      19.6684   9.3528  11.6904   C.ar      1 RES1   0.0000
     8 C8      20.7943  10.0650  12.0804   C.ar      1 RES1   0.0000
     9 H9      20.9887  10.2266  13.1354   H         1 RES1   0.0000
    10 C10     21.6700  10.5742  11.1391   C.ar      1 RES1   0.0000
    11 H11     22.5427  11.1368  11.4542   H         1 RES1   0.0000
    12 N12     18.7825   8.8639  12.7021   N.pl3     1 RES1   0.0000
    13 C13     17.5910   8.1690  12.6760   C.2       1 RES1   0.0000
    14 C14     16.7832   7.7466  11.5090   C.ar      1 RES1   0.0000
    15 C15     16.5461   6.4127  11.1930   C.ar      1 RES1   0.0000
    16 H16     16.9816   5.6286  11.8027   H         1 RES1   0.0000
    17 C17     15.7650   6.0688  10.1047   C.ar      1 RES1   0.0000
    18 H18     15.5789   5.0210   9.8936   H         1 RES1   0.0000
    19 C19     15.2166   7.0341   9.2773   C.ar      1 RES1   0.0000
    20 C20     14.3636   6.6497   8.0933   C.3       1 RES1   0.0000
    21 H21     13.8271   7.5139   7.7073   H         1 RES1   0.0000
    22 H22     14.9765   6.2441   7.2909   H         1 RES1   0.0000
    23 H23     13.6326   5.8950   8.3758   H         1 RES1   0.0000
    24 C24     15.4758   8.3616   9.5759   C.ar      1 RES1   0.0000
    25 H25     15.0657   9.1393   8.9404   H         1 RES1   0.0000
    26 C26     16.2463   8.7154  10.6688   C.ar      1 RES1   0.0000
    27 H27     16.4330   9.7642  10.8751   H         1 RES1   0.0000
    28 C28     17.2581   7.9188  13.9940   C.2       1 RES1   0.0000
    29 H29     16.3895   7.3825  14.3614   H         1 RES1   0.0000
    30 C30     18.2635   8.5092  14.7532   C.2       1 RES1   0.0000
    31 C31     18.3970   8.5438  16.2276   C.3       1 RES1   0.0000
    32 F32     17.4048   7.9180  16.8416   F         1 RES1   0.0000
    33 F33     18.4085   9.7788  16.7050   F         1 RES1   0.0000
    34 F34     19.5138   7.9722  16.6512   F         1 RES1   0.0000
    35 N35     19.1920   9.1004  14.0028   N.2       1 RES1   0.0000
    36 N36     23.6628  10.0289   8.2455   N.2       1 RES1  -1.0000
    37 H37     23.4300   9.1153   7.8558   H         1 RES1   0.0000
    38 O38     23.0662  12.2512   9.1817   O.2       1 RES1   0.0000
    39 O39     21.7041  11.3060   7.4139   O.2       1 RES1   0.0000
@<TRIPOS>BOND
     1     1     2    1
     2     1    36    1
     3     1    38    2
     4     1    39    2
     5     2     3   ar
     6     2    10   ar
     7     3     5   ar
     8     3     4    1
     9     5     7   ar
    10     5     6    1
    11     7     8   ar
    12     7    12    1
    13     8    10   ar
    14     8     9    1
    15    10    11    1
    16    12    13    1
    17    12    35    1
    18    13    14    1
    19    13    28    2
    20    14    15   ar
    21    14    26   ar
    22    15    17   ar
    23    15    16    1
    24    17    19   ar
    25    17    18    1
    26    19    20    1
    27    19    24   ar
    28    20    21    1
    29    20    22    1
    30    20    23    1
    31    24    26   ar
    32    24    25    1
    33    26    27    1
    34    28    30    1
    35    28    29    1
    36    30    31    1
    37    30    35    2
    38    31    32    1
    39    31    33    1
    40    31    34    1
    41    36    37    1
@<TRIPOS>SUBSTRUCTURE
     1 RES1        1 GROUP             0 ****  ****    0  
@<TRIPOS>MOLECULE
LIGAND_00011
    39    41     1     0     0
SMALL
USER_CHARGES
****
Generated from the CSD

@<TRIPOS>ATOM
     1 S1      12.7325   5.5567  16.9767   S.o2      1 RES1   0.0000
     2 C2      14.1241   6.2533  16.1075   C.ar      1 RES1   0.0000
     3 C3      15.2416   6.6662  16.8128   C.ar      1 RES1   0.0000
     4 H4      15.2763   6.5576  17.8918   H         1 RES1   0.0000
     5 C5      16.3138   7.2166  16.1341   C.ar      1 RES1   0.0000
     6 H6      17.1969   7.5176  16.6870   H         1 RES1   0.0000
     7 C7      16.2709   7.3811  14.7556   C.ar      1 RES1   0.0000
     8 C8      15.1523   6.9415  14.0609   C.ar      1 RES1   0.0000
     9 H9      15.1183   7.0387  12.9809   H         1 RES1   0.0000
    10 C10     14.0785   6.3836  14.7301   C.ar      1 RES1   0.0000
    11 H11     13.2053   6.0509  14.1786   H         1 RES1   0.0000
    12 N12     17.3473   7.9696  14.0191   N.pl3     1 RES1   0.0000
    13 C13     17.5910   8.1690  12.6760   C.2       1 RES1   0.0000
    14 C14     16.7832   7.7466  11.5090   C.ar      1 RES1   0.0000
    15 C15     16.5628   6.4126  11.1815   C.ar      1 RES1   0.0000
    16 H16     17.0120   5.6288  11.7815   H         1 RES1   0.0000
    17 C17     15.7810   6.0683  10.0938   C.ar      1 RES1   0.0000
    18 H18     15.6082   5.0202   9.8736   H         1 RES1   0.0000
    19 C19     15.2153   7.0338   9.2783   C.ar      1 RES1   0.0000
    20 C20     14.3617   6.6489   8.0949   C.3       1 RES1   0.0000
    21 H21     13.8115   7.5093   7.7198   H         1 RES1   0.0000
    22 H22     14.9761   6.2594   7.2857   H         1 RES1   0.0000
    23 H23     13.6425   5.8817   8.3737   H         1 RES1   0.0000
    24 C24     15.4578   8.3618   9.5882   C.ar      1 RES1   0.0000
    25 H25     15.0339   9.1398   8.9622   H         1 RES1   0.0000
    26 C26     16.2289   8.7159  10.6807   C.ar      1 RES1   0.0000
    27 H27     16.4023   9.7651  10.8960   H         1 RES1   0.0000
    28 C28     18.7811   8.8673  12.5965   C.2       1 RES1   0.0000
    29 H29     19.2818   9.2113  11.6975   H         1 RES1   0.0000
    30 C30     19.2106   9.0272  13.9102   C.2       1 RES1   0.0000
    31 C31     20.4350   9.7026  14.3976   C.3       1 RES1   0.0000
    32 F32     21.1699  10.1939  13.4118   F         1 RES1   0.0000
    33 F33     21.2251   8.8868  15.0783   F         1 RES1   0.0000
    34 F34     20.1692  10.7191  15.2034   F         1 RES1   0.0000
    35 N35     18.3734   8.4837  14.7925   N.2       1 RES1   0.0000
    36 N36     12.8815   4.0236  17.1048   N.2       1 RES1  -1.0000
    37 H37     13.6789   3.6286  17.6034   H         1 RES1   0.0000
    38 O38     11.5717   5.9196  16.1770   O.2       1 RES1   0.0000
    39 O39     12.7429   6.2054  18.2795   O.2       1 RES1   0.0000
@<TRIPOS>BOND
     1     1     2    1
     2     1    36    1
     3     1    38    2
     4     1    39    2
     5     2     3   ar
     6     2    10   ar
     7     3     5   ar
     8     3     4    1
     9     5     7   ar
    10     5     6    1
    11     7     8   ar
    12     7    12    1
    13     8    10   ar
    14     8     9    1
    15    10    11    1
    16    12    13    1
    17    12    35    1
    18    13    14    1
    19    13    28    2
    20    14    15   ar
    21    14    26   ar
    22    15    17   ar
    23    15    16    1
    24    17    19   ar
    25    17    18    1
    26    19    20    1
    27    19    24   ar
    28    20    21    1
    29    20    22    1
    30    20    23    1
    31    24    26   ar
    32    24    25    1
    33    26    27    1
    34    28    30    1
    35    28    29    1
    36    30    31    1
    37    30    35    2
    38    31    32    1
    39    31    33    1
    40    31    34    1
    41    36    37    1
@<TRIPOS>SUBSTRUCTURE
     1 RES1        1 GROUP             0 ****  ****    0  
@<TRIPOS>MOLECULE
LIGAND_00012
    39    41     1     0     0
SMALL
USER_CHARGES
****
Generated from the CSD

@<TRIPOS>ATOM
     1 S1      22.8623   4.1497  10.4510   S.o2      1 RES1   0.0000
     2 C2      21.7016   5.2695  11.2100   C.ar      1 RES1   0.0000
     3 C3      21.9811   5.8164  12.4508   C.ar      1 RES1   0.0000
     4 H4      22.9092   5.5729  12.9575   H         1 RES1   0.0000
     5 C5      21.0715   6.6757  13.0400   C.ar      1 RES1   0.0000
     6 H6      21.3039   7.1206  14.0014   H         1 RES1   0.0000
     7 C7      19.8704   6.9764  12.4106   C.ar      1 RES1   0.0000
     8 C8      19.6154   6.4375  11.1569   C.ar      1 RES1   0.0000
     9 H9      18.6934   6.6870  10.6426   H         1 RES1   0.0000
    10 C10     20.5220   5.5830  10.5569   C.ar      1 RES1   0.0000
    11 H11     20.3093   5.1603   9.5805   H         1 RES1   0.0000
    12 N12     18.8915   7.8395  12.9973   N.pl3     1 RES1   0.0000
    13 C13     17.5910   8.1690  12.6760   C.2       1 RES1   0.0000
    14 C14     16.7832   7.7466  11.5090   C.ar      1 RES1   0.0000
    15 C15     16.4098   6.4257  11.2827   C.ar      1 RES1   0.0000
    16 H16     16.7327   5.6493  11.9675   H         1 RES1   0.0000
    17 C17     15.6344   6.0844  10.1895   C.ar      1 RES1   0.0000
    18 H18     15.3399   5.0498  10.0486   H         1 RES1   0.0000
    19 C19     15.2274   7.0356   9.2692   C.ar      1 RES1   0.0000
    20 C20     14.3796   6.6545   8.0806   C.3       1 RES1   0.0000
    21 H21     13.9573   7.5389   7.6082   H         1 RES1   0.0000
    22 H22     14.9715   6.1228   7.3383   H         1 RES1   0.0000
    23 H23     13.5591   6.0084   8.3856   H         1 RES1   0.0000
    24 C24     15.6227   8.3463   9.4797   C.ar      1 RES1   0.0000
    25 H25     15.3252   9.1117   8.7708   H         1 RES1   0.0000
    26 C26     16.3885   8.6991  10.5764   C.ar      1 RES1   0.0000
    27 H27     16.6839   9.7342  10.7123   H         1 RES1   0.0000
    28 C28     17.1426   9.0058  13.6805   C.2       1 RES1   0.0000
    29 H29     16.1595   9.4559  13.7702   H         1 RES1   0.0000
    30 C30     18.2194   9.1610  14.5478   C.2       1 RES1   0.0000
    31 C31     18.2850   9.9612  15.7921   C.3       1 RES1   0.0000
    32 F32     17.1458  10.5820  16.0567   F         1 RES1   0.0000
    33 F33     19.2161  10.9012  15.7398   F         1 RES1   0.0000
    34 F34     18.5614   9.2246  16.8571   F         1 RES1   0.0000
    35 N35     19.2953   8.4804  14.1556   N.2       1 RES1   0.0000
    36 N36     23.8761   4.9241   9.5783   N.2       1 RES1  -1.0000
    37 H37     24.4839   5.6247  10.0027   H         1 RES1   0.0000
    38 O38     22.0451   3.2468   9.6538   O.2       1 RES1   0.0000
    39 O39     23.5179   3.4797  11.5644   O.2       1 RES1   0.0000
@<TRIPOS>BOND
     1     1     2    1
     2     1    36    1
     3     1    38    2
     4     1    39    2
     5     2     3   ar
     6     2    10   ar
     7     3     5   ar
     8     3     4    1
     9     5     7   ar
    10     5     6    1
    11     7     8   ar
    12     7    12    1
    13     8    10   ar
    14     8     9    1
    15    10    11    1
    16    12    13    1
    17    12    35    1
    18    13    14    1
    19    13    28    2
    20    14    15   ar
    21    14    26   ar
    22    15    17   ar
    23    15    16    1
    24    17    19   ar
    25    17    18    1
    26    19    20    1
    27    19    24   ar
    28    20    21    1
    29    20    22    1
    30    20    23    1
    31    24    26   ar
    32    24    25    1
    33    26    27    1
    34    28    30    1
    35    28    29    1
    36    30    31    1
    37    30    35    2
    38    31    32    1
    39    31    33    1
    40    31    34    1
    41    36    37    1
@<TRIPOS>SUBSTRUCTURE
     1 RES1        1 GROUP             0 ****  ****    0  
@<TRIPOS>MOLECULE
LIGAND_00013
    39    41     1     0     0
SMALL
USER_CHARGES
****
Generated from the CSD

@<TRIPOS>ATOM
     1 S1      21.1412   2.1184  12.5743   S.o2      1 RES1   0.0000
     2 C2      20.3798   3.7104  12.8254   C.ar      1 RES1   0.0000
     3 C3      19.0524   3.7872  13.2112   C.ar      1 RES1   0.0000
     4 H4      18.4777   2.8809  13.3709   H         1 RES1   0.0000
     5 C5      18.4638   5.0256  13.3933   C.ar      1 RES1   0.0000
     6 H6      17.4306   5.0821  13.7181   H         1 RES1   0.0000
     7 C7      19.1837   6.1921  13.1698   C.ar      1 RES1   0.0000
     8 C8      20.5198   6.0978  12.8049   C.ar      1 RES1   0.0000
     9 H9      21.1006   7.0017  12.6547   H         1 RES1   0.0000
    10 C10     21.1188   4.8641  12.6274   C.ar      1 RES1   0.0000
    11 H11     22.1614   4.8013  12.3338   H         1 RES1   0.0000
    12 N12     18.6051   7.4920  13.3214   N.pl3     1 RES1   0.0000
    13 C13     17.5910   8.1690  12.6760   C.2       1 RES1   0.0000
    14 C14     16.7832   7.7466  11.5090   C.ar      1 RES1   0.0000
    15 C15     16.4286   6.4226  11.2708   C.ar      1 RES1   0.0000
    16 H16     16.7671   5.6441  11.9455   H         1 RES1   0.0000
    17 C17     15.6525   6.0810  10.1782   C.ar      1 RES1   0.0000
    18 H18     15.3729   5.0436  10.0280   H         1 RES1   0.0000
    19 C19     15.2259   7.0355   9.2703   C.ar      1 RES1   0.0000
    20 C20     14.3774   6.6540   8.0823   C.3       1 RES1   0.0000
    21 H21     13.9390   7.5367   7.6216   H         1 RES1   0.0000
    22 H22     14.9731   6.1392   7.3312   H         1 RES1   0.0000
    23 H23     13.5685   5.9923   8.3850   H         1 RES1   0.0000
    24 C24     15.6024   8.3498   9.4925   C.ar      1 RES1   0.0000
    25 H25     15.2893   9.1180   8.7933   H         1 RES1   0.0000
    26 C26     16.3688   8.7027  10.5887   C.ar      1 RES1   0.0000
    27 H27     16.6493   9.7407  10.7339   H         1 RES1   0.0000
    28 C28     17.4466   9.3744  13.3367   C.2       1 RES1   0.0000
    29 H29     16.7351  10.1632  13.1158   H         1 RES1   0.0000
    30 C30     18.4127   9.3713  14.3379   C.2       1 RES1   0.0000
    31 C31     18.6984  10.4254  15.3380   C.3       1 RES1   0.0000
    32 F32     17.9014  11.4751  15.2105   F         1 RES1   0.0000
    33 F33     19.9363  10.8863  15.2467   F         1 RES1   0.0000
    34 F34     18.5526   9.9988  16.5830   F         1 RES1   0.0000
    35 N35     19.1383   8.2541  14.3462   N.2       1 RES1   0.0000
    36 N36     21.7762   1.6047  13.8866   N.2       1 RES1  -1.0000
    37 H37     21.1927   1.4481  14.7085   H         1 RES1   0.0000
    38 O38     22.1433   2.3410  11.5425   O.2       1 RES1   0.0000
    39 O39     20.0590   1.2526  12.1298   O.2       1 RES1   0.0000
@<TRIPOS>BOND
     1     1     2    1
     2     1    36    1
     3     1    38    2
     4     1    39    2
     5     2     3   ar
     6     2    10   ar
     7     3     5   ar
     8     3     4    1
     9     5     7   ar
    10     5     6    1
    11     7     8   ar
    12     7    12    1
    13     8    10   ar
    14     8     9    1
    15    10    11    1
    16    12    13    1
    17    12    35    1
    18    13    14    1
    19    13    28    2
    20    14    15   ar
    21    14    26   ar
    22    15    17   ar
    23    15    16    1
    24    17    19   ar
    25    17    18    1
    26    19    20    1
    27    19    24   ar
    28    20    21    1
    29    20    22    1
    30    20    23    1
    31    24    26   ar
    32    24    25    1
    33    26    27    1
    34    28    30    1
    35    28    29    1
    36    30    31    1
    37    30    35    2
    38    31    32    1
    39    31    33    1
    40    31    34    1
    41    36    37    1
@<TRIPOS>SUBSTRUCTURE
     1 RES1        1 GROUP             0 ****  ****    0  
@<TRIPOS>MOLECULE
LIGAND_00014
    39    41     1     0     0
SMALL
USER_CHARGES
****
Generated from the CSD

@<TRIPOS>ATOM
     1 S1      15.1497   2.8819  16.6207   S.o2      1 RES1   0.0000
     2 C2      15.9009   4.2674  15.7879   C.ar      1 RES1   0.0000
     3 C3      16.7793   4.0490  14.7403   C.ar      1 RES1   0.0000
     4 H4      17.0037   3.0373  14.4187   H         1 RES1   0.0000
     5 C5      17.3681   5.1276  14.1054   C.ar      1 RES1   0.0000
     6 H6      18.0376   4.9540  13.2702   H         1 RES1   0.0000
     7 C7      17.1055   6.4258  14.5237   C.ar      1 RES1   0.0000
     8 C8      16.2053   6.6285  15.5608   C.ar      1 RES1   0.0000
     9 H9      15.9704   7.6390  15.8782   H         1 RES1   0.0000
    10 C10     15.6064   5.5566  16.1969   C.ar      1 RES1   0.0000
    11 H11     14.9107   5.7256  17.0122   H         1 RES1   0.0000
    12 N12     17.7135   7.5671  13.9113   N.pl3     1 RES1   0.0000
    13 C13     17.5910   8.1690  12.6760   C.2       1 RES1   0.0000
    14 C14     16.7832   7.7466  11.5090   C.ar      1 RES1   0.0000
    15 C15     16.5488   6.4127  11.1911   C.ar      1 RES1   0.0000
    16 H16     16.9866   5.6286  11.7992   H         1 RES1   0.0000
    17 C17     15.7676   6.0687  10.1030   C.ar      1 RES1   0.0000
    18 H18     15.5837   5.0209   9.8903   H         1 RES1   0.0000
    19 C19     15.2164   7.0341   9.2774   C.ar      1 RES1   0.0000
    20 C20     14.3633   6.6496   8.0936   C.3       1 RES1   0.0000
    21 H21     13.8246   7.5132   7.7094   H         1 RES1   0.0000
    22 H22     14.9765   6.2466   7.2900   H         1 RES1   0.0000
    23 H23     13.6342   5.8928   8.3754   H         1 RES1   0.0000
    24 C24     15.4728   8.3616   9.5779   C.ar      1 RES1   0.0000
    25 H25     15.0605   9.1394   8.9439   H         1 RES1   0.0000
    26 C26     16.2435   8.7155  10.6708   C.ar      1 RES1   0.0000
    27 H27     16.4280   9.7644  10.8785   H         1 RES1   0.0000
    28 C28     18.3926   9.2944  12.7109   C.2       1 RES1   0.0000
    29 H29     18.5378  10.0220  11.9191   H         1 RES1   0.0000
    30 C30     18.9850   9.2940  13.9697   C.2       1 RES1   0.0000
    31 C31     19.9396  10.2761  14.5329   C.3       1 RES1   0.0000
    32 F32     20.2247  11.2510  13.6834   F         1 RES1   0.0000
    33 F33     21.0961   9.7233  14.8648   F         1 RES1   0.0000
    34 F34     19.4808  10.8617  15.6282   F         1 RES1   0.0000
    35 N35     18.6061   8.2561  14.7139   N.2       1 RES1   0.0000
    36 N36     13.8159   2.4955  15.9418   N.2       1 RES1  -1.0000
    37 H37     13.8070   2.2026  14.9647   H         1 RES1   0.0000
    38 O38     14.9460   3.3332  17.9894   O.2       1 RES1   0.0000
    39 O39     16.1296   1.8104  16.5218   O.2       1 RES1   0.0000
@<TRIPOS>BOND
     1     1     2    1
     2     1    36    1
     3     1    38    2
     4     1    39    2
     5     2     3   ar
     6     2    10   ar
     7     3     5   ar
     8     3     4    1
     9     5     7   ar
    10     5     6    1
    11     7     8   ar
    12     7    12    1
    13     8    10   ar
    14     8     9    1
    15    10    11    1
    16    12    13    1
    17    12    35    1
    18    13    14    1
    19    13    28    2
    20    14    15   ar
    21    14    26   ar
    22    15    17   ar
    23    15    16    1
    24    17    19   ar
    25    17    18    1
    26    19    20    1
    27    19    24   ar
    28    20    21    1
    29    20    22    1
    30    20    23    1
    31    24    26   ar
    32    24    25    1
    33    26    27    1
    34    28    30    1
    35    28    29    1
    36    30    31    1
    37    30    35    2
    38    31    32    1
    39    31    33    1
    40    31    34    1
    41    36    37    1
@<TRIPOS>SUBSTRUCTURE
     1 RES1        1 GROUP             0 ****  ****    0  
@<TRIPOS>MOLECULE
LIGAND_00015
    39    41     1     0     0
SMALL
USER_CHARGES
****
Generated from the CSD

@<TRIPOS>ATOM
     1 S1      15.1896   2.7025  16.3258   S.o2      1 RES1   0.0000
     2 C2      15.9519   4.1578  15.6344   C.ar      1 RES1   0.0000
     3 C3      15.6259   5.4089  16.1297   C.ar      1 RES1   0.0000
     4 H4      14.9155   5.5047  16.9442   H         1 RES1   0.0000
     5 C5      16.2120   6.5354  15.5814   C.ar      1 RES1   0.0000
     6 H6      15.9722   7.5121  15.9872   H         1 RES1   0.0000
     7 C7      17.1055   6.4258  14.5237   C.ar      1 RES1   0.0000
     8 C8      17.4386   5.1628  14.0535   C.ar      1 RES1   0.0000
     9 H9      18.1565   5.0623  13.2464   H         1 RES1   0.0000
    10 C10     16.8631   4.0304  14.6001   C.ar      1 RES1   0.0000
    11 H11     17.1238   3.0483  14.2197   H         1 RES1   0.0000
    12 N12     17.7135   7.5671  13.9113   N.pl3     1 RES1   0.0000
    13 C13     17.5910   8.1690  12.6760   C.2       1 RES1   0.0000
    14 C14     16.7832   7.7466  11.5090   C.ar      1 RES1   0.0000
    15 C15     16.5532   6.4126  11.1881   C.ar      1 RES1   0.0000
    16 H16     16.9946   5.6286  11.7937   H         1 RES1   0.0000
    17 C17     15.7719   6.0685  10.1001   C.ar      1 RES1   0.0000
    18 H18     15.5914   5.0206   9.8851   H         1 RES1   0.0000
    19 C19     15.2161   7.0340   9.2777   C.ar      1 RES1   0.0000
    20 C20     14.3628   6.6494   8.0940   C.3       1 RES1   0.0000
    21 H21     13.8205   7.5120   7.7126   H         1 RES1   0.0000
    22 H22     14.9763   6.2507   7.2886   H         1 RES1   0.0000
    23 H23     13.6368   5.8893   8.3749   H         1 RES1   0.0000
    24 C24     15.4681   8.3617   9.5812   C.ar      1 RES1   0.0000
    25 H25     15.0521   9.1396   8.9497   H         1 RES1   0.0000
    26 C26     16.2389   8.7157  10.6739   C.ar      1 RES1   0.0000
    27 H27     16.4199   9.7647  10.8840   H         1 RES1   0.0000
    28 C28     18.3926   9.2944  12.7109   C.2       1 RES1   0.0000
    29 H29     18.5378  10.0220  11.9191   H         1 RES1   0.0000
    30 C30     18.9850   9.2940  13.9697   C.2       1 RES1   0.0000
    31 C31     19.9396  10.2761  14.5329   C.3       1 RES1   0.0000
    32 F32     20.2247  11.2510  13.6834   F         1 RES1   0.0000
    33 F33     21.0961   9.7233  14.8648   F         1 RES1   0.0000
    34 F34     19.4808  10.8617  15.6282   F         1 RES1   0.0000
    35 N35     18.6061   8.2561  14.7139   N.2       1 RES1   0.0000
    36 N36     16.0284   2.1544  17.5028   N.2       1 RES1  -1.0000
    37 H37     16.1932   2.7347  18.3254   H         1 RES1   0.0000
    38 O38     15.1246   1.7541  15.2237   O.2       1 RES1   0.0000
    39 O39     13.8744   3.1432  16.7667   O.2       1 RES1   0.0000
@<TRIPOS>BOND
     1     1     2    1
     2     1    36    1
     3     1    38    2
     4     1    39    2
     5     2     3   ar
     6     2    10   ar
     7     3     5   ar
     8     3     4    1
     9     5     7   ar
    10     5     6    1
    11     7     8   ar
    12     7    12    1
    13     8    10   ar
    14     8     9    1
    15    10    11    1
    16    12    13    1
    17    12    35    1
    18    13    14    1
    19    13    28    2
    20    14    15   ar
    21    14    26   ar
    22    15    17   ar
    23    15    16    1
    24    17    19   ar
    25    17    18    1
    26    19    20    1
    27    19    24   ar
    28    20    21    1
    29    20    22    1
    30    20    23    1
    31    24    26   ar
    32    24    25    1
    33    26    27    1
    34    28    30    1
    35    28    29    1
    36    30    31    1
    37    30    35    2
    38    31    32    1
    39    31    33    1
    40    31    34    1
    41    36    37    1
@<TRIPOS>SUBSTRUCTURE
     1 RES1        1 GROUP             0 ****  ****    0  
@<TRIPOS>MOLECULE
LIGAND_00016
    39    41     1     0     0
SMALL
USER_CHARGES
****
Generated from the CSD

@<TRIPOS>ATOM
     1 S1      20.9153   1.9909  12.8054   S.o2      1 RES1   0.0000
     2 C2      20.2338   3.6333  12.9297   C.ar      1 RES1   0.0000
     3 C3      21.0220   4.7317  12.6310   C.ar      1 RES1   0.0000
     4 H4      22.0499   4.5946  12.3119   H         1 RES1   0.0000
     5 C5      20.4912   6.0042  12.7404   C.ar      1 RES1   0.0000
     6 H6      21.1040   6.8613  12.4834   H         1 RES1   0.0000
     7 C7      19.1837   6.1921  13.1698   C.ar      1 RES1   0.0000
     8 C8      18.3999   5.0796  13.4438   C.ar      1 RES1   0.0000
     9 H9      17.3685   5.2123  13.7530   H         1 RES1   0.0000
    10 C10     18.9198   3.8032  13.3305   C.ar      1 RES1   0.0000
    11 H11     18.3013   2.9405  13.5553   H         1 RES1   0.0000
    12 N12     18.6051   7.4920  13.3214   N.pl3     1 RES1   0.0000
    13 C13     17.5910   8.1690  12.6760   C.2       1 RES1   0.0000
    14 C14     16.7832   7.7466  11.5090   C.ar      1 RES1   0.0000
    15 C15     16.4389   6.4211  11.2642   C.ar      1 RES1   0.0000
    16 H16     16.7859   5.6415  11.9334   H         1 RES1   0.0000
    17 C17     15.6623   6.0793  10.1720   C.ar      1 RES1   0.0000
    18 H18     15.3909   5.0405  10.0167   H         1 RES1   0.0000
    19 C19     15.2251   7.0355   9.2709   C.ar      1 RES1   0.0000
    20 C20     14.3761   6.6537   8.0832   C.3       1 RES1   0.0000
    21 H21     13.9291   7.5354   7.6290   H         1 RES1   0.0000
    22 H22     14.9739   6.1482   7.3274   H         1 RES1   0.0000
    23 H23     13.5737   5.9836   8.3845   H         1 RES1   0.0000
    24 C24     15.5913   8.3516   9.4996   C.ar      1 RES1   0.0000
    25 H25     15.2697   9.1210   8.8058   H         1 RES1   0.0000
    26 C26     16.3581   8.7044  10.5955   C.ar      1 RES1   0.0000
    27 H27     16.6303   9.7440  10.7459   H         1 RES1   0.0000
    28 C28     17.4466   9.3744  13.3367   C.2       1 RES1   0.0000
    29 H29     16.7351  10.1632  13.1158   H         1 RES1   0.0000
    30 C30     18.4127   9.3713  14.3379   C.2       1 RES1   0.0000
    31 C31     18.6984  10.4254  15.3380   C.3       1 RES1   0.0000
    32 F32     17.9014  11.4751  15.2105   F         1 RES1   0.0000
    33 F33     19.9363  10.8863  15.2467   F         1 RES1   0.0000
    34 F34     18.5526   9.9988  16.5830   F         1 RES1   0.0000
    35 N35     19.1383   8.2541  14.3462   N.2       1 RES1   0.0000
    36 N36     20.6998   1.4172  11.3864   N.2       1 RES1  -1.0000
    37 H37     21.1040   1.8903  10.5781   H         1 RES1   0.0000
    38 O38     20.2077   1.2145  13.8129   O.2       1 RES1   0.0000
    39 O39     22.3299   2.1493  13.1086   O.2       1 RES1   0.0000
@<TRIPOS>BOND
     1     1     2    1
     2     1    36    1
     3     1    38    2
     4     1    39    2
     5     2     3   ar
     6     2    10   ar
     7     3     5   ar
     8     3     4    1
     9     5     7   ar
    10     5     6    1
    11     7     8   ar
    12     7    12    1
    13     8    10   ar
    14     8     9    1
    15    10    11    1
    16    12    13    1
    17    12    35    1
    18    13    14    1
    19    13    28    2
    20    14    15   ar
    21    14    26   ar
    22    15    17   ar
    23    15    16    1
    24    17    19   ar
    25    17    18    1
    26    19    20    1
    27    19    24   ar
    28    20    21    1
    29    20    22    1
    30    20    23    1
    31    24    26   ar
    32    24    25    1
    33    26    27    1
    34    28    30    1
    35    28    29    1
    36    30    31    1
    37    30    35    2
    38    31    32    1
    39    31    33    1
    40    31    34    1
    41    36    37    1
@<TRIPOS>SUBSTRUCTURE
     1 RES1        1 GROUP             0 ****  ****    0  
@<TRIPOS>MOLECULE
LIGAND_00017
    39    41     1     0     0
SMALL
USER_CHARGES
****
Generated from the CSD

@<TRIPOS>ATOM
     1 S1      23.0450   4.1871  10.7008   S.o2      1 RES1   0.0000
     2 C2      21.7904   5.2675  11.3611   C.ar      1 RES1   0.0000
     3 C3      21.3222   6.3262  10.6017   C.ar      1 RES1   0.0000
     4 H4      21.7098   6.4937   9.6022   H         1 RES1   0.0000
     5 C5      20.3570   7.1681  11.1238   C.ar      1 RES1   0.0000
     6 H6      19.9756   7.9825  10.5176   H         1 RES1   0.0000
     7 C7      19.8704   6.9764  12.4106   C.ar      1 RES1   0.0000
     8 C8      20.3340   5.8972  13.1505   C.ar      1 RES1   0.0000
     9 H9      19.9412   5.7203  14.1462   H         1 RES1   0.0000
    10 C10     21.2938   5.0460  12.6341   C.ar      1 RES1   0.0000
    11 H11     21.6556   4.2103  13.2239   H         1 RES1   0.0000
    12 N12     18.8915   7.8395  12.9973   N.pl3     1 RES1   0.0000
    13 C13     17.5910   8.1690  12.6760   C.2       1 RES1   0.0000
    14 C14     16.7832   7.7466  11.5090   C.ar      1 RES1   0.0000
    15 C15     16.4878   6.4156  11.2324   C.ar      1 RES1   0.0000
    16 H16     16.8751   5.6326  11.8749   H         1 RES1   0.0000
    17 C17     15.7091   6.0729  10.1419   C.ar      1 RES1   0.0000
    18 H18     15.4766   5.0287   9.9617   H         1 RES1   0.0000
    19 C19     15.2212   7.0350   9.2738   C.ar      1 RES1   0.0000
    20 C20     14.3704   6.6521   8.0878   C.3       1 RES1   0.0000
    21 H21     13.8823   7.5273   7.6643   H         1 RES1   0.0000
    22 H22     14.9762   6.1915   7.3101   H         1 RES1   0.0000
    23 H23     13.5995   5.9427   8.3814   H         1 RES1   0.0000
    24 C24     15.5387   8.3579   9.5337   C.ar      1 RES1   0.0000
    25 H25     15.1768   9.1325   8.8659   H         1 RES1   0.0000
    26 C26     16.3072   8.7112  10.6283   C.ar      1 RES1   0.0000
    27 H27     16.5405   9.7563  10.8036   H         1 RES1   0.0000
    28 C28     17.1426   9.0058  13.6805   C.2       1 RES1   0.0000
    29 H29     16.1595   9.4559  13.7702   H         1 RES1   0.0000
    30 C30     18.2194   9.1610  14.5478   C.2       1 RES1   0.0000
    31 C31     18.2850   9.9612  15.7921   C.3       1 RES1   0.0000
    32 F32     17.1458  10.5820  16.0567   F         1 RES1   0.0000
    33 F33     19.2161  10.9012  15.7398   F         1 RES1   0.0000
    34 F34     18.5614   9.2246  16.8571   F         1 RES1   0.0000
    35 N35     19.2953   8.4804  14.1556   N.2       1 RES1   0.0000
    36 N36     22.4015   3.0036   9.9429   N.2       1 RES1  -1.0000
    37 H37     21.8069   3.1794   9.1330   H         1 RES1   0.0000
    38 O38     23.7999   3.7366  11.8609   O.2       1 RES1   0.0000
    39 O39     23.8312   5.0278   9.8102   O.2       1 RES1   0.0000
@<TRIPOS>BOND
     1     1     2    1
     2     1    36    1
     3     1    38    2
     4     1    39    2
     5     2     3   ar
     6     2    10   ar
     7     3     5   ar
     8     3     4    1
     9     5     7   ar
    10     5     6    1
    11     7     8   ar
    12     7    12    1
    13     8    10   ar
    14     8     9    1
    15    10    11    1
    16    12    13    1
    17    12    35    1
    18    13    14    1
    19    13    28    2
    20    14    15   ar
    21    14    26   ar
    22    15    17   ar
    23    15    16    1
    24    17    19   ar
    25    17    18    1
    26    19    20    1
    27    19    24   ar
    28    20    21    1
    29    20    22    1
    30    20    23    1
    31    24    26   ar
    32    24    25    1
    33    26    27    1
    34    28    30    1
    35    28    29    1
    36    30    31    1
    37    30    35    2
    38    31    32    1
    39    31    33    1
    40    31    34    1
    41    36    37    1
@<TRIPOS>SUBSTRUCTURE
     1 RES1        1 GROUP             0 ****  ****    0  
@<TRIPOS>MOLECULE
LIGAND_00018
    39    41     1     0     0
SMALL
USER_CHARGES
****
Generated from the CSD

@<TRIPOS>ATOM
     1 S1      22.9289   4.2707  10.3842   S.o2      1 RES1   0.0000
     2 C2      21.7469   5.3384  11.1843   C.ar      1 RES1   0.0000
     3 C3      21.3292   5.0606  12.4748   C.ar      1 RES1   0.0000
     4 H4      21.7271   4.2008  13.0035   H         1 RES1   0.0000
     5 C5      20.4032   5.8862  13.0864   C.ar      1 RES1   0.0000
     6 H6      20.0956   5.6792  14.1055   H         1 RES1   0.0000
     7 C7      19.8704   6.9764  12.4106   C.ar      1 RES1   0.0000
     8 C8      20.3163   7.2539  11.1255   C.ar      1 RES1   0.0000
     9 H9      19.9287   8.1188  10.5976   H         1 RES1   0.0000
    10 C10     21.2471   6.4383  10.5086   C.ar      1 RES1   0.0000
    11 H11     21.5828   6.6591   9.5007   H         1 RES1   0.0000
    12 N12     18.8915   7.8395  12.9973   N.pl3     1 RES1   0.0000
    13 C13     17.5910   8.1690  12.6760   C.2       1 RES1   0.0000
    14 C14     16.7832   7.7466  11.5090   C.ar      1 RES1   0.0000
    15 C15     16.4878   6.4156  11.2324   C.ar      1 RES1   0.0000
    16 H16     16.8751   5.6326  11.8749   H         1 RES1   0.0000
    17 C17     15.7091   6.0729  10.1419   C.ar      1 RES1   0.0000
    18 H18     15.4766   5.0287   9.9617   H         1 RES1   0.0000
    19 C19     15.2212   7.0350   9.2738   C.ar      1 RES1   0.0000
    20 C20     14.3704   6.6521   8.0878   C.3       1 RES1   0.0000
    21 H21     13.8823   7.5273   7.6643   H         1 RES1   0.0000
    22 H22     14.9762   6.1915   7.3101   H         1 RES1   0.0000
    23 H23     13.5995   5.9427   8.3814   H         1 RES1   0.0000
    24 C24     15.5387   8.3579   9.5337   C.ar      1 RES1   0.0000
    25 H25     15.1768   9.1325   8.8659   H         1 RES1   0.0000
    26 C26     16.3072   8.7112  10.6283   C.ar      1 RES1   0.0000
    27 H27     16.5405   9.7563  10.8036   H         1 RES1   0.0000
    28 C28     17.1426   9.0058  13.6805   C.2       1 RES1   0.0000
    29 H29     16.1595   9.4559  13.7702   H         1 RES1   0.0000
    30 C30     18.2194   9.1610  14.5478   C.2       1 RES1   0.0000
    31 C31     18.2850   9.9612  15.7921   C.3       1 RES1   0.0000
    32 F32     17.1458  10.5820  16.0567   F         1 RES1   0.0000
    33 F33     19.2161  10.9012  15.7398   F         1 RES1   0.0000
    34 F34     18.5614   9.2246  16.8571   F         1 RES1   0.0000
    35 N35     19.2953   8.4804  14.1556   N.2       1 RES1   0.0000
    36 N36     24.3720   4.7492  10.6628   N.2       1 RES1  -1.0000
    37 H37     24.7193   4.7914  11.6210   H         1 RES1   0.0000
    38 O38     22.6015   4.3443   8.9679   O.2       1 RES1   0.0000
    39 O39     22.6846   2.9522  10.9500   O.2       1 RES1   0.0000
@<TRIPOS>BOND
     1     1     2    1
     2     1    36    1
     3     1    38    2
     4     1    39    2
     5     2     3   ar
     6     2    10   ar
     7     3     5   ar
     8     3     4    1
     9     5     7   ar
    10     5     6    1
    11     7     8   ar
    12     7    12    1
    13     8    10   ar
    14     8     9    1
    15    10    11    1
    16    12    13    1
    17    12    35    1
    18    13    14    1
    19    13    28    2
    20    14    15   ar
    21    14    26   ar
    22    15    17   ar
    23    15    16    1
    24    17    19   ar
    25    17    18    1
    26    19    20    1
    27    19    24   ar
    28    20    21    1
    29    20    22    1
    30    20    23    1
    31    24    26   ar
    32    24    25    1
    33    26    27    1
    34    28    30    1
    35    28    29    1
    36    30    31    1
    37    30    35    2
    38    31    32    1
    39    31    33    1
    40    31    34    1
    41    36    37    1
@<TRIPOS>SUBSTRUCTURE
     1 RES1        1 GROUP             0 ****  ****    0  
@<TRIPOS>MOLECULE
LIGAND_00019
    39    41     1     0     0
SMALL
USER_CHARGES
****
Generated from the CSD

@<TRIPOS>ATOM
     1 S1      22.5653  10.7535   8.4612   S.o2      1 RES1   0.0000
     2 C2      21.4183  10.2099   9.7126   C.ar      1 RES1   0.0000
     3 C3      20.8759  11.1271  10.5966   C.ar      1 RES1   0.0000
     4 H4      21.1395  12.1770  10.5230   H         1 RES1   0.0000
     5 C5      19.9952  10.6976  11.5729   C.ar      1 RES1   0.0000
     6 H6      19.5542  11.4220  12.2489   H         1 RES1   0.0000
     7 C7      19.6684   9.3528  11.6904   C.ar      1 RES1   0.0000
     8 C8      20.2035   8.4494  10.7822   C.ar      1 RES1   0.0000
     9 H9      19.9339   7.4004  10.8460   H         1 RES1   0.0000
    10 C10     21.0792   8.8706   9.7985   C.ar      1 RES1   0.0000
    11 H11     21.4985   8.1550   9.0988   H         1 RES1   0.0000
    12 N12     18.7825   8.8639  12.7021   N.pl3     1 RES1   0.0000
    13 C13     17.5910   8.1690  12.6760   C.2       1 RES1   0.0000
    14 C14     16.7832   7.7466  11.5090   C.ar      1 RES1   0.0000
    15 C15     16.4878   6.4156  11.2324   C.ar      1 RES1   0.0000
    16 H16     16.8751   5.6326  11.8749   H         1 RES1   0.0000
    17 C17     15.7091   6.0729  10.1419   C.ar      1 RES1   0.0000
    18 H18     15.4766   5.0287   9.9617   H         1 RES1   0.0000
    19 C19     15.2212   7.0350   9.2738   C.ar      1 RES1   0.0000
    20 C20     14.3704   6.6521   8.0878   C.3       1 RES1   0.0000
    21 H21     13.8823   7.5273   7.6643   H         1 RES1   0.0000
    22 H22     14.9762   6.1915   7.3101   H         1 RES1   0.0000
    23 H23     13.5995   5.9427   8.3814   H         1 RES1   0.0000
    24 C24     15.5387   8.3579   9.5337   C.ar      1 RES1   0.0000
    25 H25     15.1768   9.1325   8.8659   H         1 RES1   0.0000
    26 C26     16.3072   8.7112  10.6283   C.ar      1 RES1   0.0000
    27 H27     16.5405   9.7563  10.8036   H         1 RES1   0.0000
    28 C28     17.2581   7.9188  13.9940   C.2       1 RES1   0.0000
    29 H29     16.3895   7.3825  14.3614   H         1 RES1   0.0000
    30 C30     18.2635   8.5092  14.7532   C.2       1 RES1   0.0000
    31 C31     18.3970   8.5438  16.2276   C.3       1 RES1   0.0000
    32 F32     17.4048   7.9180  16.8416   F         1 RES1   0.0000
    33 F33     18.4085   9.7788  16.7050   F         1 RES1   0.0000
    34 F34     19.5138   7.9722  16.6512   F         1 RES1   0.0000
    35 N35     19.1920   9.1004  14.0028   N.2       1 RES1   0.0000
    36 N36     21.8155  11.1465   7.1680   N.2       1 RES1  -1.0000
    37 H37     21.1281  11.9000   7.1858   H         1 RES1   0.0000
    38 O38     23.4507   9.6185   8.2462   O.2       1 RES1   0.0000
    39 O39     23.2482  11.8956   9.0510   O.2       1 RES1   0.0000
@<TRIPOS>BOND
     1     1     2    1
     2     1    36    1
     3     1    38    2
     4     1    39    2
     5     2     3   ar
     6     2    10   ar
     7     3     5   ar
     8     3     4    1
     9     5     7   ar
    10     5     6    1
    11     7     8   ar
    12     7    12    1
    13     8    10   ar
    14     8     9    1
    15    10    11    1
    16    12    13    1
    17    12    35    1
    18    13    14    1
    19    13    28    2
    20    14    15   ar
    21    14    26   ar
    22    15    17   ar
    23    15    16    1
    24    17    19   ar
    25    17    18    1
    26    19    20    1
    27    19    24   ar
    28    20    21    1
    29    20    22    1
    30    20    23    1
    31    24    26   ar
    32    24    25    1
    33    26    27    1
    34    28    30    1
    35    28    29    1
    36    30    31    1
    37    30    35    2
    38    31    32    1
    39    31    33    1
    40    31    34    1
    41    36    37    1
@<TRIPOS>SUBSTRUCTURE
     1 RES1        1 GROUP             0 ****  ****    0  
@<TRIPOS>MOLECULE
LIGAND_00020
    39    41     1     0     0
SMALL
USER_CHARGES
****
Generated from the CSD

@<TRIPOS>ATOM
     1 S1      22.4123  11.0650   8.4778   S.o2      1 RES1   0.0000
     2 C2      21.3543  10.3918   9.7445   C.ar      1 RES1   0.0000
     3 C3      21.0950   9.0322   9.7761   C.ar      1 RES1   0.0000
     4 H4      21.5421   8.3745   9.0379   H         1 RES1   0.0000
     5 C5      20.2640   8.5170  10.7545   C.ar      1 RES1   0.0000
     6 H6      20.0815   7.4486  10.7905   H         1 RES1   0.0000
     7 C7      19.6684   9.3528  11.6904   C.ar      1 RES1   0.0000
     8 C8      19.9564  10.7104  11.6586   C.ar      1 RES1   0.0000
     9 H9      19.5196  11.3696  12.4013   H         1 RES1   0.0000
    10 C10     20.7916  11.2335  10.6885   C.ar      1 RES1   0.0000
    11 H11     21.0036  12.2974  10.6672   H         1 RES1   0.0000
    12 N12     18.7825   8.8639  12.7021   N.pl3     1 RES1   0.0000
    13 C13     17.5910   8.1690  12.6760   C.2       1 RES1   0.0000
    14 C14     16.7832   7.7466  11.5090   C.ar      1 RES1   0.0000
    15 C15     16.4878   6.4156  11.2324   C.ar      1 RES1   0.0000
    16 H16     16.8751   5.6326  11.8749   H         1 RES1   0.0000
    17 C17     15.7091   6.0729  10.1419   C.ar      1 RES1   0.0000
    18 H18     15.4766   5.0287   9.9617   H         1 RES1   0.0000
    19 C19     15.2212   7.0350   9.2738   C.ar      1 RES1   0.0000
    20 C20     14.3704   6.6521   8.0878   C.3       1 RES1   0.0000
    21 H21     13.8823   7.5273   7.6643   H         1 RES1   0.0000
    22 H22     14.9762   6.1915   7.3101   H         1 RES1   0.0000
    23 H23     13.5995   5.9427   8.3814   H         1 RES1   0.0000
    24 C24     15.5387   8.3579   9.5337   C.ar      1 RES1   0.0000
    25 H25     15.1768   9.1325   8.8659   H         1 RES1   0.0000
    26 C26     16.3072   8.7112  10.6283   C.ar      1 RES1   0.0000
    27 H27     16.5405   9.7563  10.8036   H         1 RES1   0.0000
    28 C28     17.2581   7.9188  13.9940   C.2       1 RES1   0.0000
    29 H29     16.3895   7.3825  14.3614   H         1 RES1   0.0000
    30 C30     18.2635   8.5092  14.7532   C.2       1 RES1   0.0000
    31 C31     18.3970   8.5438  16.2276   C.3       1 RES1   0.0000
    32 F32     17.4048   7.9180  16.8416   F         1 RES1   0.0000
    33 F33     18.4085   9.7788  16.7050   F         1 RES1   0.0000
    34 F34     19.5138   7.9722  16.6512   F         1 RES1   0.0000
    35 N35     19.1920   9.1004  14.0028   N.2       1 RES1   0.0000
    36 N36     23.8858  11.0714   8.9446   N.2       1 RES1  -1.0000
    37 H37     24.3494  10.1944   9.1824   H         1 RES1   0.0000
    38 O38     21.9137  12.4136   8.2510   O.2       1 RES1   0.0000
    39 O39     22.2199  10.1937   7.3280   O.2       1 RES1   0.0000
@<TRIPOS>BOND
     1     1     2    1
     2     1    36    1
     3     1    38    2
     4     1    39    2
     5     2     3   ar
     6     2    10   ar
     7     3     5   ar
     8     3     4    1
     9     5     7   ar
    10     5     6    1
    11     7     8   ar
    12     7    12    1
    13     8    10   ar
    14     8     9    1
    15    10    11    1
    16    12    13    1
    17    12    35    1
    18    13    14    1
    19    13    28    2
    20    14    15   ar
    21    14    26   ar
    22    15    17   ar
    23    15    16    1
    24    17    19   ar
    25    17    18    1
    26    19    20    1
    27    19    24   ar
    28    20    21    1
    29    20    22    1
    30    20    23    1
    31    24    26   ar
    32    24    25    1
    33    26    27    1
    34    28    30    1
    35    28    29    1
    36    30    31    1
    37    30    35    2
    38    31    32    1
    39    31    33    1
    40    31    34    1
    41    36    37    1
@<TRIPOS>SUBSTRUCTURE
     1 RES1        1 GROUP             0 ****  ****    0  
@<TRIPOS>MOLECULE
LIGAND_00021
    39    41     1     0     0
SMALL
USER_CHARGES
****
Generated from the CSD

@<TRIPOS>ATOM
     1 S1      15.3270   2.7249  16.5040   S.o2      1 RES1   0.0000
     2 C2      16.0141   4.1827  15.7425   C.ar      1 RES1   0.0000
     3 C3      15.2778   4.8814  14.8009   C.ar      1 RES1   0.0000
     4 H4      14.2801   4.5496  14.5331   H         1 RES1   0.0000
     5 C5      15.8207   6.0053  14.2049   C.ar      1 RES1   0.0000
     6 H6      15.2324   6.5636  13.4850   H         1 RES1   0.0000
     7 C7      17.1055   6.4258  14.5237   C.ar      1 RES1   0.0000
     8 C8      17.8219   5.7272  15.4859   C.ar      1 RES1   0.0000
     9 H9      18.8156   6.0621  15.7641   H         1 RES1   0.0000
    10 C10     17.2846   4.6065  16.0923   C.ar      1 RES1   0.0000
    11 H11     17.8561   4.0626  16.8371   H         1 RES1   0.0000
    12 N12     17.7135   7.5671  13.9113   N.pl3     1 RES1   0.0000
    13 C13     17.5910   8.1690  12.6760   C.2       1 RES1   0.0000
    14 C14     16.7832   7.7466  11.5090   C.ar      1 RES1   0.0000
    15 C15     16.5095   6.4140  11.2179   C.ar      1 RES1   0.0000
    16 H16     16.9148   5.6302  11.8483   H         1 RES1   0.0000
    17 C17     15.7299   6.0709  10.1282   C.ar      1 RES1   0.0000
    18 H18     15.5147   5.0250   9.9366   H         1 RES1   0.0000
    19 C19     15.2195   7.0347   9.2751   C.ar      1 RES1   0.0000
    20 C20     14.3678   6.6513   8.0899   C.3       1 RES1   0.0000
    21 H21     13.8616   7.5228   7.6802   H         1 RES1   0.0000
    22 H22     14.9767   6.2110   7.3028   H         1 RES1   0.0000
    23 H23     13.6116   5.9248   8.3796   H         1 RES1   0.0000
    24 C24     15.5152   8.3598   9.5492   C.ar      1 RES1   0.0000
    25 H25     15.1354   9.1360   8.8934   H         1 RES1   0.0000
    26 C26     16.2845   8.7133  10.6432   C.ar      1 RES1   0.0000
    27 H27     16.5004   9.7601  10.8299   H         1 RES1   0.0000
    28 C28     18.3926   9.2944  12.7109   C.2       1 RES1   0.0000
    29 H29     18.5378  10.0220  11.9191   H         1 RES1   0.0000
    30 C30     18.9850   9.2940  13.9697   C.2       1 RES1   0.0000
    31 C31     19.9396  10.2761  14.5329   C.3       1 RES1   0.0000
    32 F32     20.2247  11.2510  13.6834   F         1 RES1   0.0000
    33 F33     21.0961   9.7233  14.8648   F         1 RES1   0.0000
    34 F34     19.4808  10.8617  15.6282   F         1 RES1   0.0000
    35 N35     18.6061   8.2561  14.7139   N.2       1 RES1   0.0000
    36 N36     15.8785   2.5468  17.9370   N.2       1 RES1  -1.0000
    37 H37     15.7135   3.2671  18.6402   H         1 RES1   0.0000
    38 O38     15.7225   1.6264  15.6348   O.2       1 RES1   0.0000
    39 O39     13.8888   2.9483  16.5090   O.2       1 RES1   0.0000
@<TRIPOS>BOND
     1     1     2    1
     2     1    36    1
     3     1    38    2
     4     1    39    2
     5     2     3   ar
     6     2    10   ar
     7     3     5   ar
     8     3     4    1
     9     5     7   ar
    10     5     6    1
    11     7     8   ar
    12     7    12    1
    13     8    10   ar
    14     8     9    1
    15    10    11    1
    16    12    13    1
    17    12    35    1
    18    13    14    1
    19    13    28    2
    20    14    15   ar
    21    14    26   ar
    22    15    17   ar
    23    15    16    1
    24    17    19   ar
    25    17    18    1
    26    19    20    1
    27    19    24   ar
    28    20    21    1
    29    20    22    1
    30    20    23    1
    31    24    26   ar
    32    24    25    1
    33    26    27    1
    34    28    30    1
    35    28    29    1
    36    30    31    1
    37    30    35    2
    38    31    32    1
    39    31    33    1
    40    31    34    1
    41    36    37    1
@<TRIPOS>SUBSTRUCTURE
     1 RES1        1 GROUP             0 ****  ****    0  
@<TRIPOS>MOLECULE
LIGAND_00022
    39    41     1     0     0
SMALL
USER_CHARGES
****
Generated from the CSD

@<TRIPOS>ATOM
     1 S1      15.3270   2.7249  16.5040   S.o2      1 RES1   0.0000
     2 C2      16.0141   4.1827  15.7425   C.ar      1 RES1   0.0000
     3 C3      15.2778   4.8814  14.8009   C.ar      1 RES1   0.0000
     4 H4      14.2801   4.5496  14.5331   H         1 RES1   0.0000
     5 C5      15.8207   6.0053  14.2049   C.ar      1 RES1   0.0000
     6 H6      15.2324   6.5636  13.4850   H         1 RES1   0.0000
     7 C7      17.1055   6.4258  14.5237   C.ar      1 RES1   0.0000
     8 C8      17.8219   5.7272  15.4859   C.ar      1 RES1   0.0000
     9 H9      18.8156   6.0621  15.7641   H         1 RES1   0.0000
    10 C10     17.2846   4.6065  16.0923   C.ar      1 RES1   0.0000
    11 H11     17.8561   4.0626  16.8371   H         1 RES1   0.0000
    12 N12     17.7135   7.5671  13.9113   N.pl3     1 RES1   0.0000
    13 C13     17.5910   8.1690  12.6760   C.2       1 RES1   0.0000
    14 C14     16.7832   7.7466  11.5090   C.ar      1 RES1   0.0000
    15 C15     16.5095   6.4140  11.2179   C.ar      1 RES1   0.0000
    16 H16     16.9148   5.6302  11.8483   H         1 RES1   0.0000
    17 C17     15.7299   6.0709  10.1282   C.ar      1 RES1   0.0000
    18 H18     15.5147   5.0250   9.9366   H         1 RES1   0.0000
    19 C19     15.2195   7.0347   9.2751   C.ar      1 RES1   0.0000
    20 C20     14.3678   6.6513   8.0899   C.3       1 RES1   0.0000
    21 H21     13.8616   7.5228   7.6802   H         1 RES1   0.0000
    22 H22     14.9767   6.2110   7.3028   H         1 RES1   0.0000
    23 H23     13.6116   5.9248   8.3796   H         1 RES1   0.0000
    24 C24     15.5152   8.3598   9.5492   C.ar      1 RES1   0.0000
    25 H25     15.1354   9.1360   8.8934   H         1 RES1   0.0000
    26 C26     16.2845   8.7133  10.6432   C.ar      1 RES1   0.0000
    27 H27     16.5004   9.7601  10.8299   H         1 RES1   0.0000
    28 C28     18.3926   9.2944  12.7109   C.2       1 RES1   0.0000
    29 H29     18.5378  10.0220  11.9191   H         1 RES1   0.0000
    30 C30     18.9850   9.2940  13.9697   C.2       1 RES1   0.0000
    31 C31     19.9396  10.2761  14.5329   C.3       1 RES1   0.0000
    32 F32     20.2247  11.2510  13.6834   F         1 RES1   0.0000
    33 F33     21.0961   9.7233  14.8648   F         1 RES1   0.0000
    34 F34     19.4808  10.8617  15.6282   F         1 RES1   0.0000
    35 N35     18.6061   8.2561  14.7139   N.2       1 RES1   0.0000
    36 N36     13.7870   2.8274  16.5870   N.2       1 RES1  -1.0000
    37 H37     13.2350   2.9171  15.7339   H         1 RES1   0.0000
    38 O38     15.9348   2.6707  17.8255   O.2       1 RES1   0.0000
    39 O39     15.7439   1.6242  15.6479   O.2       1 RES1   0.0000
@<TRIPOS>BOND
     1     1     2    1
     2     1    36    1
     3     1    38    2
     4     1    39    2
     5     2     3   ar
     6     2    10   ar
     7     3     5   ar
     8     3     4    1
     9     5     7   ar
    10     5     6    1
    11     7     8   ar
    12     7    12    1
    13     8    10   ar
    14     8     9    1
    15    10    11    1
    16    12    13    1
    17    12    35    1
    18    13    14    1
    19    13    28    2
    20    14    15   ar
    21    14    26   ar
    22    15    17   ar
    23    15    16    1
    24    17    19   ar
    25    17    18    1
    26    19    20    1
    27    19    24   ar
    28    20    21    1
    29    20    22    1
    30    20    23    1
    31    24    26   ar
    32    24    25    1
    33    26    27    1
    34    28    30    1
    35    28    29    1
    36    30    31    1
    37    30    35    2
    38    31    32    1
    39    31    33    1
    40    31    34    1
    41    36    37    1
@<TRIPOS>SUBSTRUCTURE
     1 RES1        1 GROUP             0 ****  ****    0  
@<TRIPOS>MOLECULE
LIGAND_00023
    39    41     1     0     0
SMALL
USER_CHARGES
****
Generated from the CSD

@<TRIPOS>ATOM
     1 S1      21.1159   2.0769  12.8339   S.o2      1 RES1   0.0000
     2 C2      20.3436   3.6779  12.9656   C.ar      1 RES1   0.0000
     3 C3      19.9087   4.3301  11.8244   C.ar      1 RES1   0.0000
     4 H4      20.0277   3.8647  10.8516   H         1 RES1   0.0000
     5 C5      19.3205   5.5774  11.9318   C.ar      1 RES1   0.0000
     6 H6      18.9599   6.0753  11.0384   H         1 RES1   0.0000
     7 C7      19.1837   6.1921  13.1698   C.ar      1 RES1   0.0000
     8 C8      19.6046   5.5153  14.3063   C.ar      1 RES1   0.0000
     9 H9      19.4777   5.9728  15.2818   H         1 RES1   0.0000
    10 C10     20.1873   4.2650  14.2095   C.ar      1 RES1   0.0000
    11 H11     20.5207   3.7480  15.1033   H         1 RES1   0.0000
    12 N12     18.6051   7.4920  13.3214   N.pl3     1 RES1   0.0000
    13 C13     17.5910   8.1690  12.6760   C.2       1 RES1   0.0000
    14 C14     16.7832   7.7466  11.5090   C.ar      1 RES1   0.0000
    15 C15     16.4294   6.4225  11.2702   C.ar      1 RES1   0.0000
    16 H16     16.7687   5.6438  11.9445   H         1 RES1   0.0000
    17 C17     15.6533   6.0809  10.1777   C.ar      1 RES1   0.0000
    18 H18     15.3744   5.0433  10.0271   H         1 RES1   0.0000
    19 C19     15.2258   7.0355   9.2704   C.ar      1 RES1   0.0000
    20 C20     14.3773   6.6540   8.0824   C.3       1 RES1   0.0000
    21 H21     13.9382   7.5366   7.6222   H         1 RES1   0.0000
    22 H22     14.9732   6.1399   7.3309   H         1 RES1   0.0000
    23 H23     13.5689   5.9916   8.3849   H         1 RES1   0.0000
    24 C24     15.6015   8.3500   9.4931   C.ar      1 RES1   0.0000
    25 H25     15.2877   9.1182   8.7943   H         1 RES1   0.0000
    26 C26     16.3680   8.7028  10.5892   C.ar      1 RES1   0.0000
    27 H27     16.6477   9.7410  10.7349   H         1 RES1   0.0000
    28 C28     17.4466   9.3744  13.3367   C.2       1 RES1   0.0000
    29 H29     16.7351  10.1632  13.1158   H         1 RES1   0.0000
    30 C30     18.4127   9.3713  14.3379   C.2       1 RES1   0.0000
    31 C31     18.6984  10.4254  15.3380   C.3       1 RES1   0.0000
    32 F32     17.9014  11.4751  15.2105   F         1 RES1   0.0000
    33 F33     19.9363  10.8863  15.2467   F         1 RES1   0.0000
    34 F34     18.5526   9.9988  16.5830   F         1 RES1   0.0000
    35 N35     19.1383   8.2541  14.3462   N.2       1 RES1   0.0000
    36 N36     20.8474   1.2359  14.1027   N.2       1 RES1  -1.0000
    37 H37     19.8902   1.0030  14.3671   H         1 RES1   0.0000
    38 O38     22.5340   2.3579  12.6645   O.2       1 RES1   0.0000
    39 O39     20.5182   1.4696  11.6540   O.2       1 RES1   0.0000
@<TRIPOS>BOND
     1     1     2    1
     2     1    36    1
     3     1    38    2
     4     1    39    2
     5     2     3   ar
     6     2    10   ar
     7     3     5   ar
     8     3     4    1
     9     5     7   ar
    10     5     6    1
    11     7     8   ar
    12     7    12    1
    13     8    10   ar
    14     8     9    1
    15    10    11    1
    16    12    13    1
    17    12    35    1
    18    13    14    1
    19    13    28    2
    20    14    15   ar
    21    14    26   ar
    22    15    17   ar
    23    15    16    1
    24    17    19   ar
    25    17    18    1
    26    19    20    1
    27    19    24   ar
    28    20    21    1
    29    20    22    1
    30    20    23    1
    31    24    26   ar
    32    24    25    1
    33    26    27    1
    34    28    30    1
    35    28    29    1
    36    30    31    1
    37    30    35    2
    38    31    32    1
    39    31    33    1
    40    31    34    1
    41    36    37    1
@<TRIPOS>SUBSTRUCTURE
     1 RES1        1 GROUP             0 ****  ****    0  
@<TRIPOS>MOLECULE
LIGAND_00024
    39    41     1     0     0
SMALL
USER_CHARGES
****
Generated from the CSD

@<TRIPOS>ATOM
     1 S1      21.1159   2.0769  12.8339   S.o2      1 RES1   0.0000
     2 C2      20.3436   3.6779  12.9656   C.ar      1 RES1   0.0000
     3 C3      19.9087   4.3301  11.8244   C.ar      1 RES1   0.0000
     4 H4      20.0277   3.8647  10.8516   H         1 RES1   0.0000
     5 C5      19.3205   5.5774  11.9318   C.ar      1 RES1   0.0000
     6 H6      18.9599   6.0753  11.0384   H         1 RES1   0.0000
     7 C7      19.1837   6.1921  13.1698   C.ar      1 RES1   0.0000
     8 C8      19.6046   5.5153  14.3063   C.ar      1 RES1   0.0000
     9 H9      19.4777   5.9728  15.2818   H         1 RES1   0.0000
    10 C10     20.1873   4.2650  14.2095   C.ar      1 RES1   0.0000
    11 H11     20.5207   3.7480  15.1033   H         1 RES1   0.0000
    12 N12     18.6051   7.4920  13.3214   N.pl3     1 RES1   0.0000
    13 C13     17.5910   8.1690  12.6760   C.2       1 RES1   0.0000
    14 C14     16.7832   7.7466  11.5090   C.ar      1 RES1   0.0000
    15 C15     16.4294   6.4225  11.2702   C.ar      1 RES1   0.0000
    16 H16     16.7687   5.6438  11.9445   H         1 RES1   0.0000
    17 C17     15.6533   6.0809  10.1777   C.ar      1 RES1   0.0000
    18 H18     15.3744   5.0433  10.0271   H         1 RES1   0.0000
    19 C19     15.2258   7.0355   9.2704   C.ar      1 RES1   0.0000
    20 C20     14.3773   6.6540   8.0824   C.3       1 RES1   0.0000
    21 H21     13.9382   7.5366   7.6222   H         1 RES1   0.0000
    22 H22     14.9732   6.1399   7.3309   H         1 RES1   0.0000
    23 H23     13.5689   5.9916   8.3849   H         1 RES1   0.0000
    24 C24     15.6015   8.3500   9.4931   C.ar      1 RES1   0.0000
    25 H25     15.2877   9.1182   8.7943   H         1 RES1   0.0000
    26 C26     16.3680   8.7028  10.5892   C.ar      1 RES1   0.0000
    27 H27     16.6477   9.7410  10.7349   H         1 RES1   0.0000
    28 C28     17.4466   9.3744  13.3367   C.2       1 RES1   0.0000
    29 H29     16.7351  10.1632  13.1158   H         1 RES1   0.0000
    30 C30     18.4127   9.3713  14.3379   C.2       1 RES1   0.0000
    31 C31     18.6984  10.4254  15.3380   C.3       1 RES1   0.0000
    32 F32     17.9014  11.4751  15.2105   F         1 RES1   0.0000
    33 F33     19.9363  10.8863  15.2467   F         1 RES1   0.0000
    34 F34     18.5526   9.9988  16.5830   F         1 RES1   0.0000
    35 N35     19.1383   8.2541  14.3462   N.2       1 RES1   0.0000
    36 N36     20.5637   1.3038  11.6146   N.2       1 RES1  -1.0000
    37 H37     20.6755   1.6856  10.6753   H         1 RES1   0.0000
    38 O38     20.8000   1.4045  14.0855   O.2       1 RES1   0.0000
    39 O39     22.5366   2.3580  12.6895   O.2       1 RES1   0.0000
@<TRIPOS>BOND
     1     1     2    1
     2     1    36    1
     3     1    38    2
     4     1    39    2
     5     2     3   ar
     6     2    10   ar
     7     3     5   ar
     8     3     4    1
     9     5     7   ar
    10     5     6    1
    11     7     8   ar
    12     7    12    1
    13     8    10   ar
    14     8     9    1
    15    10    11    1
    16    12    13    1
    17    12    35    1
    18    13    14    1
    19    13    28    2
    20    14    15   ar
    21    14    26   ar
    22    15    17   ar
    23    15    16    1
    24    17    19   ar
    25    17    18    1
    26    19    20    1
    27    19    24   ar
    28    20    21    1
    29    20    22    1
    30    20    23    1
    31    24    26   ar
    32    24    25    1
    33    26    27    1
    34    28    30    1
    35    28    29    1
    36    30    31    1
    37    30    35    2
    38    31    32    1
    39    31    33    1
    40    31    34    1
    41    36    37    1
@<TRIPOS>SUBSTRUCTURE
     1 RES1        1 GROUP             0 ****  ****    0  
@<TRIPOS>MOLECULE
LIGAND_00025
    39    41     1     0     0
SMALL
USER_CHARGES
****
Generated from the CSD

@<TRIPOS>ATOM
     1 S1      15.0128   2.8621  16.4479   S.o2      1 RES1   0.0000
     2 C2      15.8385   4.2441  15.6827   C.ar      1 RES1   0.0000
     3 C3      17.1399   4.5539  16.0394   C.ar      1 RES1   0.0000
     4 H4      17.6616   3.9516  16.7758   H         1 RES1   0.0000
     5 C5      17.7716   5.6345  15.4507   C.ar      1 RES1   0.0000
     6 H6      18.7988   5.8604  15.7151   H         1 RES1   0.0000
     7 C7      17.1055   6.4258  14.5237   C.ar      1 RES1   0.0000
     8 C8      15.8088   6.0884  14.1605   C.ar      1 RES1   0.0000
     9 H9      15.2877   6.6820  13.4168   H         1 RES1   0.0000
    10 C10     15.1717   5.0057  14.7385   C.ar      1 RES1   0.0000
    11 H11     14.1550   4.7555  14.4539   H         1 RES1   0.0000
    12 N12     17.7135   7.5671  13.9113   N.pl3     1 RES1   0.0000
    13 C13     17.5910   8.1690  12.6760   C.2       1 RES1   0.0000
    14 C14     16.7832   7.7466  11.5090   C.ar      1 RES1   0.0000
    15 C15     16.5310   6.4131  11.2033   C.ar      1 RES1   0.0000
    16 H16     16.9541   5.6289  11.8216   H         1 RES1   0.0000
    17 C17     15.7506   6.0695  10.1145   C.ar      1 RES1   0.0000
    18 H18     15.5525   5.0223   9.9114   H         1 RES1   0.0000
    19 C19     15.2178   7.0344   9.2764   C.ar      1 RES1   0.0000
    20 C20     14.3654   6.6504   8.0919   C.3       1 RES1   0.0000
    21 H21     13.8413   7.5178   7.6961   H         1 RES1   0.0000
    22 H22     14.9767   6.2304   7.2957   H         1 RES1   0.0000
    23 H23     13.6238   5.9072   8.3774   H         1 RES1   0.0000
    24 C24     15.4920   8.3611   9.5648   C.ar      1 RES1   0.0000
    25 H25     15.0944   9.1383   8.9209   H         1 RES1   0.0000
    26 C26     16.2621   8.7147  10.6582   C.ar      1 RES1   0.0000
    27 H27     16.4608   9.7629  10.8564   H         1 RES1   0.0000
    28 C28     18.3926   9.2944  12.7109   C.2       1 RES1   0.0000
    29 H29     18.5378  10.0220  11.9191   H         1 RES1   0.0000
    30 C30     18.9850   9.2940  13.9697   C.2       1 RES1   0.0000
    31 C31     19.9396  10.2761  14.5329   C.3       1 RES1   0.0000
    32 F32     20.2247  11.2510  13.6834   F         1 RES1   0.0000
    33 F33     21.0961   9.7233  14.8648   F         1 RES1   0.0000
    34 F34     19.4808  10.8617  15.6282   F         1 RES1   0.0000
    35 N35     18.6061   8.2561  14.7139   N.2       1 RES1   0.0000
    36 N36     13.9825   2.2382  15.4793   N.2       1 RES1  -1.0000
    37 H37     14.2905   1.8506  14.5874   H         1 RES1   0.0000
    38 O38     14.3719   3.4170  17.6311   O.2       1 RES1   0.0000
    39 O39     16.0772   1.9240  16.7727   O.2       1 RES1   0.0000
@<TRIPOS>BOND
     1     1     2    1
     2     1    36    1
     3     1    38    2
     4     1    39    2
     5     2     3   ar
     6     2    10   ar
     7     3     5   ar
     8     3     4    1
     9     5     7   ar
    10     5     6    1
    11     7     8   ar
    12     7    12    1
    13     8    10   ar
    14     8     9    1
    15    10    11    1
    16    12    13    1
    17    12    35    1
    18    13    14    1
    19    13    28    2
    20    14    15   ar
    21    14    26   ar
    22    15    17   ar
    23    15    16    1
    24    17    19   ar
    25    17    18    1
    26    19    20    1
    27    19    24   ar
    28    20    21    1
    29    20    22    1
    30    20    23    1
    31    24    26   ar
    32    24    25    1
    33    26    27    1
    34    28    30    1
    35    28    29    1
    36    30    31    1
    37    30    35    2
    38    31    32    1
    39    31    33    1
    40    31    34    1
    41    36    37    1
@<TRIPOS>SUBSTRUCTURE
     1 RES1        1 GROUP             0 ****  ****    0  
@<TRIPOS>MOLECULE
LIGAND_00026
    39    41     1     0     0
SMALL
USER_CHARGES
****
Generated from the CSD

@<TRIPOS>ATOM
     1 S1      15.0128   2.8621  16.4479   S.o2      1 RES1   0.0000
     2 C2      15.8385   4.2441  15.6827   C.ar      1 RES1   0.0000
     3 C3      17.1399   4.5539  16.0394   C.ar      1 RES1   0.0000
     4 H4      17.6616   3.9516  16.7758   H         1 RES1   0.0000
     5 C5      17.7716   5.6345  15.4507   C.ar      1 RES1   0.0000
     6 H6      18.7988   5.8604  15.7151   H         1 RES1   0.0000
     7 C7      17.1055   6.4258  14.5237   C.ar      1 RES1   0.0000
     8 C8      15.8088   6.0884  14.1605   C.ar      1 RES1   0.0000
     9 H9      15.2877   6.6820  13.4168   H         1 RES1   0.0000
    10 C10     15.1717   5.0057  14.7385   C.ar      1 RES1   0.0000
    11 H11     14.1550   4.7555  14.4539   H         1 RES1   0.0000
    12 N12     17.7135   7.5671  13.9113   N.pl3     1 RES1   0.0000
    13 C13     17.5910   8.1690  12.6760   C.2       1 RES1   0.0000
    14 C14     16.7832   7.7466  11.5090   C.ar      1 RES1   0.0000
    15 C15     16.5310   6.4131  11.2033   C.ar      1 RES1   0.0000
    16 H16     16.9541   5.6289  11.8216   H         1 RES1   0.0000
    17 C17     15.7506   6.0695  10.1145   C.ar      1 RES1   0.0000
    18 H18     15.5525   5.0223   9.9114   H         1 RES1   0.0000
    19 C19     15.2178   7.0344   9.2764   C.ar      1 RES1   0.0000
    20 C20     14.3654   6.6504   8.0919   C.3       1 RES1   0.0000
    21 H21     13.8413   7.5178   7.6961   H         1 RES1   0.0000
    22 H22     14.9767   6.2304   7.2957   H         1 RES1   0.0000
    23 H23     13.6238   5.9072   8.3774   H         1 RES1   0.0000
    24 C24     15.4920   8.3611   9.5648   C.ar      1 RES1   0.0000
    25 H25     15.0944   9.1383   8.9209   H         1 RES1   0.0000
    26 C26     16.2621   8.7147  10.6582   C.ar      1 RES1   0.0000
    27 H27     16.4608   9.7629  10.8564   H         1 RES1   0.0000
    28 C28     18.3926   9.2944  12.7109   C.2       1 RES1   0.0000
    29 H29     18.5378  10.0220  11.9191   H         1 RES1   0.0000
    30 C30     18.9850   9.2940  13.9697   C.2       1 RES1   0.0000
    31 C31     19.9396  10.2761  14.5329   C.3       1 RES1   0.0000
    32 F32     20.2247  11.2510  13.6834   F         1 RES1   0.0000
    33 F33     21.0961   9.7233  14.8648   F         1 RES1   0.0000
    34 F34     19.4808  10.8617  15.6282   F         1 RES1   0.0000
    35 N35     18.6061   8.2561  14.7139   N.2       1 RES1   0.0000
    36 N36     16.0315   1.7684  16.8418   N.2       1 RES1  -1.0000
    37 H37     16.7769   1.9806  17.5050   H         1 RES1   0.0000
    38 O38     14.0723   2.3854  15.4446   O.2       1 RES1   0.0000
    39 O39     14.3517   3.4225  17.6172   O.2       1 RES1   0.0000
@<TRIPOS>BOND
     1     1     2    1
     2     1    36    1
     3     1    38    2
     4     1    39    2
     5     2     3   ar
     6     2    10   ar
     7     3     5   ar
     8     3     4    1
     9     5     7   ar
    10     5     6    1
    11     7     8   ar
    12     7    12    1
    13     8    10   ar
    14     8     9    1
    15    10    11    1
    16    12    13    1
    17    12    35    1
    18    13    14    1
    19    13    28    2
    20    14    15   ar
    21    14    26   ar
    22    15    17   ar
    23    15    16    1
    24    17    19   ar
    25    17    18    1
    26    19    20    1
    27    19    24   ar
    28    20    21    1
    29    20    22    1
    30    20    23    1
    31    24    26   ar
    32    24    25    1
    33    26    27    1
    34    28    30    1
    35    28    29    1
    36    30    31    1
    37    30    35    2
    38    31    32    1
    39    31    33    1
    40    31    34    1
    41    36    37    1
@<TRIPOS>SUBSTRUCTURE
     1 RES1        1 GROUP             0 ****  ****    0  
@<TRIPOS>MOLECULE
LIGAND_00027
    39    41     1     0     0
SMALL
USER_CHARGES
****
Generated from the CSD

@<TRIPOS>ATOM
     1 S1      20.9366   2.0314  12.5398   S.o2      1 RES1   0.0000
     2 C2      20.2684   3.6655  12.7857   C.ar      1 RES1   0.0000
     3 C3      20.1725   4.1863  14.0649   C.ar      1 RES1   0.0000
     4 H4      20.5123   3.6063  14.9167   H         1 RES1   0.0000
     5 C5      19.6425   5.4503  14.2507   C.ar      1 RES1   0.0000
     6 H6      19.5902   5.8646  15.2515   H         1 RES1   0.0000
     7 C7      19.1837   6.1921  13.1698   C.ar      1 RES1   0.0000
     8 C8      19.3075   5.6646  11.8916   C.ar      1 RES1   0.0000
     9 H9      18.9787   6.2458  11.0366   H         1 RES1   0.0000
    10 C10     19.8426   4.4047  11.6956   C.ar      1 RES1   0.0000
    11 H11     19.9272   3.9981  10.6932   H         1 RES1   0.0000
    12 N12     18.6051   7.4920  13.3214   N.pl3     1 RES1   0.0000
    13 C13     17.5910   8.1690  12.6760   C.2       1 RES1   0.0000
    14 C14     16.7832   7.7466  11.5090   C.ar      1 RES1   0.0000
    15 C15     16.4230   6.4235  11.2743   C.ar      1 RES1   0.0000
    16 H16     16.7569   5.6455  11.9520   H         1 RES1   0.0000
    17 C17     15.6471   6.0820  10.1816   C.ar      1 RES1   0.0000
    18 H18     15.3631   5.0454  10.0342   H         1 RES1   0.0000
    19 C19     15.2264   7.0356   9.2700   C.ar      1 RES1   0.0000
    20 C20     14.3780   6.6541   8.0818   C.3       1 RES1   0.0000
    21 H21     13.9445   7.5374   7.6176   H         1 RES1   0.0000
    22 H22     14.9727   6.1343   7.3333   H         1 RES1   0.0000
    23 H23     13.5657   5.9971   8.3852   H         1 RES1   0.0000
    24 C24     15.6084   8.3489   9.4887   C.ar      1 RES1   0.0000
    25 H25     15.2999   9.1162   8.7866   H         1 RES1   0.0000
    26 C26     16.3747   8.7016  10.5850   C.ar      1 RES1   0.0000
    27 H27     16.6595   9.7389  10.7275   H         1 RES1   0.0000
    28 C28     17.4466   9.3744  13.3367   C.2       1 RES1   0.0000
    29 H29     16.7351  10.1632  13.1158   H         1 RES1   0.0000
    30 C30     18.4127   9.3713  14.3379   C.2       1 RES1   0.0000
    31 C31     18.6984  10.4254  15.3380   C.3       1 RES1   0.0000
    32 F32     17.9014  11.4751  15.2105   F         1 RES1   0.0000
    33 F33     19.9363  10.8863  15.2467   F         1 RES1   0.0000
    34 F34     18.5526   9.9988  16.5830   F         1 RES1   0.0000
    35 N35     19.1383   8.2541  14.3462   N.2       1 RES1   0.0000
    36 N36     21.6345   1.9290  11.1644   N.2       1 RES1  -1.0000
    37 H37     22.4289   2.5316  10.9494   H         1 RES1   0.0000
    38 O38     19.7892   1.1402  12.6287   O.2       1 RES1   0.0000
    39 O39     21.8795   1.8448  13.6326   O.2       1 RES1   0.0000
@<TRIPOS>BOND
     1     1     2    1
     2     1    36    1
     3     1    38    2
     4     1    39    2
     5     2     3   ar
     6     2    10   ar
     7     3     5   ar
     8     3     4    1
     9     5     7   ar
    10     5     6    1
    11     7     8   ar
    12     7    12    1
    13     8    10   ar
    14     8     9    1
    15    10    11    1
    16    12    13    1
    17    12    35    1
    18    13    14    1
    19    13    28    2
    20    14    15   ar
    21    14    26   ar
    22    15    17   ar
    23    15    16    1
    24    17    19   ar
    25    17    18    1
    26    19    20    1
    27    19    24   ar
    28    20    21    1
    29    20    22    1
    30    20    23    1
    31    24    26   ar
    32    24    25    1
    33    26    27    1
    34    28    30    1
    35    28    29    1
    36    30    31    1
    37    30    35    2
    38    31    32    1
    39    31    33    1
    40    31    34    1
    41    36    37    1
@<TRIPOS>SUBSTRUCTURE
     1 RES1        1 GROUP             0 ****  ****    0  
@<TRIPOS>MOLECULE
LIGAND_00028
    39    41     1     0     0
SMALL
USER_CHARGES
****
Generated from the CSD

@<TRIPOS>ATOM
     1 S1      20.9366   2.0314  12.5398   S.o2      1 RES1   0.0000
     2 C2      20.2684   3.6655  12.7857   C.ar      1 RES1   0.0000
     3 C3      20.1725   4.1863  14.0649   C.ar      1 RES1   0.0000
     4 H4      20.5123   3.6063  14.9167   H         1 RES1   0.0000
     5 C5      19.6425   5.4503  14.2507   C.ar      1 RES1   0.0000
     6 H6      19.5902   5.8646  15.2515   H         1 RES1   0.0000
     7 C7      19.1837   6.1921  13.1698   C.ar      1 RES1   0.0000
     8 C8      19.3075   5.6646  11.8916   C.ar      1 RES1   0.0000
     9 H9      18.9787   6.2458  11.0366   H         1 RES1   0.0000
    10 C10     19.8426   4.4047  11.6956   C.ar      1 RES1   0.0000
    11 H11     19.9272   3.9981  10.6932   H         1 RES1   0.0000
    12 N12     18.6051   7.4920  13.3214   N.pl3     1 RES1   0.0000
    13 C13     17.5910   8.1690  12.6760   C.2       1 RES1   0.0000
    14 C14     16.7832   7.7466  11.5090   C.ar      1 RES1   0.0000
    15 C15     16.4230   6.4235  11.2743   C.ar      1 RES1   0.0000
    16 H16     16.7569   5.6455  11.9520   H         1 RES1   0.0000
    17 C17     15.6471   6.0820  10.1816   C.ar      1 RES1   0.0000
    18 H18     15.3631   5.0454  10.0342   H         1 RES1   0.0000
    19 C19     15.2264   7.0356   9.2700   C.ar      1 RES1   0.0000
    20 C20     14.3780   6.6541   8.0818   C.3       1 RES1   0.0000
    21 H21     13.9445   7.5374   7.6176   H         1 RES1   0.0000
    22 H22     14.9727   6.1343   7.3333   H         1 RES1   0.0000
    23 H23     13.5657   5.9971   8.3852   H         1 RES1   0.0000
    24 C24     15.6084   8.3489   9.4887   C.ar      1 RES1   0.0000
    25 H25     15.2999   9.1162   8.7866   H         1 RES1   0.0000
    26 C26     16.3747   8.7016  10.5850   C.ar      1 RES1   0.0000
    27 H27     16.6595   9.7389  10.7275   H         1 RES1   0.0000
    28 C28     17.4466   9.3744  13.3367   C.2       1 RES1   0.0000
    29 H29     16.7351  10.1632  13.1158   H         1 RES1   0.0000
    30 C30     18.4127   9.3713  14.3379   C.2       1 RES1   0.0000
    31 C31     18.6984  10.4254  15.3380   C.3       1 RES1   0.0000
    32 F32     17.9014  11.4751  15.2105   F         1 RES1   0.0000
    33 F33     19.9363  10.8863  15.2467   F         1 RES1   0.0000
    34 F34     18.5526   9.9988  16.5830   F         1 RES1   0.0000
    35 N35     19.1383   8.2541  14.3462   N.2       1 RES1   0.0000
    36 N36     21.9739   1.6959  13.6355   N.2       1 RES1  -1.0000
    37 H37     21.6929   1.6789  14.6159   H         1 RES1   0.0000
    38 O38     21.5438   2.0701  11.2175   O.2       1 RES1   0.0000
    39 O39     19.7853   1.1433  12.6041   O.2       1 RES1   0.0000
@<TRIPOS>BOND
     1     1     2    1
     2     1    36    1
     3     1    38    2
     4     1    39    2
     5     2     3   ar
     6     2    10   ar
     7     3     5   ar
     8     3     4    1
     9     5     7   ar
    10     5     6    1
    11     7     8   ar
    12     7    12    1
    13     8    10   ar
    14     8     9    1
    15    10    11    1
    16    12    13    1
    17    12    35    1
    18    13    14    1
    19    13    28    2
    20    14    15   ar
    21    14    26   ar
    22    15    17   ar
    23    15    16    1
    24    17    19   ar
    25    17    18    1
    26    19    20    1
    27    19    24   ar
    28    20    21    1
    29    20    22    1
    30    20    23    1
    31    24    26   ar
    32    24    25    1
    33    26    27    1
    34    28    30    1
    35    28    29    1
    36    30    31    1
    37    30    35    2
    38    31    32    1
    39    31    33    1
    40    31    34    1
    41    36    37    1
@<TRIPOS>SUBSTRUCTURE
     1 RES1        1 GROUP             0 ****  ****    0  
@<TRIPOS>MOLECULE
LIGAND_00029
    39    41     1     0     0
SMALL
USER_CHARGES
****
Generated from the CSD

@<TRIPOS>ATOM
     1 S1      23.0957   4.3633  10.5262   S.o2      1 RES1   0.0000
     2 C2      21.8350   5.3744  11.2783   C.ar      1 RES1   0.0000
     3 C3      20.5032   5.0132  11.1665   C.ar      1 RES1   0.0000
     4 H4      20.2260   4.1111  10.6310   H         1 RES1   0.0000
     5 C5      19.5285   5.8078  11.7424   C.ar      1 RES1   0.0000
     6 H6      18.4881   5.5097  11.6729   H         1 RES1   0.0000
     7 C7      19.8704   6.9764  12.4106   C.ar      1 RES1   0.0000
     8 C8      21.2117   7.3127  12.5329   C.ar      1 RES1   0.0000
     9 H9      21.4935   8.2082  13.0766   H         1 RES1   0.0000
    10 C10     22.1937   6.5206  11.9666   C.ar      1 RES1   0.0000
    11 H11     23.2387   6.7969  12.0607   H         1 RES1   0.0000
    12 N12     18.8915   7.8395  12.9973   N.pl3     1 RES1   0.0000
    13 C13     17.5910   8.1690  12.6760   C.2       1 RES1   0.0000
    14 C14     16.7832   7.7466  11.5090   C.ar      1 RES1   0.0000
    15 C15     16.3417   6.4403  11.3245   C.ar      1 RES1   0.0000
    16 H16     16.6083   5.6744  12.0445   H         1 RES1   0.0000
    17 C17     15.5694   6.0998  10.2289   C.ar      1 RES1   0.0000
    18 H18     15.2209   5.0782  10.1207   H         1 RES1   0.0000
    19 C19     15.2329   7.0357   9.2654   C.ar      1 RES1   0.0000
    20 C20     14.3879   6.6558   8.0743   C.3       1 RES1   0.0000
    21 H21     14.0240   7.5430   7.5605   H         1 RES1   0.0000
    22 H22     14.9634   6.0645   7.3650   H         1 RES1   0.0000
    23 H23     13.5274   6.0676   8.3862   H         1 RES1   0.0000
    24 C24     15.6960   8.3301   9.4349   C.ar      1 RES1   0.0000
    25 H25     15.4546   9.0826   8.6917   H         1 RES1   0.0000
    26 C26     16.4593   8.6825  10.5333   C.ar      1 RES1   0.0000
    27 H27     16.8088   9.7045  10.6366   H         1 RES1   0.0000
    28 C28     17.1426   9.0058  13.6805   C.2       1 RES1   0.0000
    29 H29     16.1595   9.4559  13.7702   H         1 RES1   0.0000
    30 C30     18.2194   9.1610  14.5478   C.2       1 RES1   0.0000
    31 C31     18.2850   9.9612  15.7921   C.3       1 RES1   0.0000
    32 F32     17.1458  10.5820  16.0567   F         1 RES1   0.0000
    33 F33     19.2161  10.9012  15.7398   F         1 RES1   0.0000
    34 F34     18.5614   9.2246  16.8571   F         1 RES1   0.0000
    35 N35     19.2953   8.4804  14.1556   N.2       1 RES1   0.0000
    36 N36     24.4156   4.4531  11.3257   N.2       1 RES1  -1.0000
    37 H37     24.4420   4.1571  12.3015   H         1 RES1   0.0000
    38 O38     23.2457   4.8925   9.1786   O.2       1 RES1   0.0000
    39 O39     22.5517   3.0135  10.5430   O.2       1 RES1   0.0000
@<TRIPOS>BOND
     1     1     2    1
     2     1    36    1
     3     1    38    2
     4     1    39    2
     5     2     3   ar
     6     2    10   ar
     7     3     5   ar
     8     3     4    1
     9     5     7   ar
    10     5     6    1
    11     7     8   ar
    12     7    12    1
    13     8    10   ar
    14     8     9    1
    15    10    11    1
    16    12    13    1
    17    12    35    1
    18    13    14    1
    19    13    28    2
    20    14    15   ar
    21    14    26   ar
    22    15    17   ar
    23    15    16    1
    24    17    19   ar
    25    17    18    1
    26    19    20    1
    27    19    24   ar
    28    20    21    1
    29    20    22    1
    30    20    23    1
    31    24    26   ar
    32    24    25    1
    33    26    27    1
    34    28    30    1
    35    28    29    1
    36    30    31    1
    37    30    35    2
    38    31    32    1
    39    31    33    1
    40    31    34    1
    41    36    37    1
@<TRIPOS>SUBSTRUCTURE
     1 RES1        1 GROUP             0 ****  ****    0  
@<TRIPOS>MOLECULE
LIGAND_00030
    39    41     1     0     0
SMALL
USER_CHARGES
****
Generated from the CSD

@<TRIPOS>ATOM
     1 S1      23.0957   4.3633  10.5262   S.o2      1 RES1   0.0000
     2 C2      21.8350   5.3744  11.2783   C.ar      1 RES1   0.0000
     3 C3      20.5032   5.0132  11.1665   C.ar      1 RES1   0.0000
     4 H4      20.2260   4.1111  10.6310   H         1 RES1   0.0000
     5 C5      19.5285   5.8078  11.7424   C.ar      1 RES1   0.0000
     6 H6      18.4881   5.5097  11.6729   H         1 RES1   0.0000
     7 C7      19.8704   6.9764  12.4106   C.ar      1 RES1   0.0000
     8 C8      21.2117   7.3127  12.5329   C.ar      1 RES1   0.0000
     9 H9      21.4935   8.2082  13.0766   H         1 RES1   0.0000
    10 C10     22.1937   6.5206  11.9666   C.ar      1 RES1   0.0000
    11 H11     23.2387   6.7969  12.0607   H         1 RES1   0.0000
    12 N12     18.8915   7.8395  12.9973   N.pl3     1 RES1   0.0000
    13 C13     17.5910   8.1690  12.6760   C.2       1 RES1   0.0000
    14 C14     16.7832   7.7466  11.5090   C.ar      1 RES1   0.0000
    15 C15     16.3417   6.4403  11.3245   C.ar      1 RES1   0.0000
    16 H16     16.6083   5.6744  12.0445   H         1 RES1   0.0000
    17 C17     15.5694   6.0998  10.2289   C.ar      1 RES1   0.0000
    18 H18     15.2209   5.0782  10.1207   H         1 RES1   0.0000
    19 C19     15.2329   7.0357   9.2654   C.ar      1 RES1   0.0000
    20 C20     14.3879   6.6558   8.0743   C.3       1 RES1   0.0000
    21 H21     14.0240   7.5430   7.5605   H         1 RES1   0.0000
    22 H22     14.9634   6.0645   7.3650   H         1 RES1   0.0000
    23 H23     13.5274   6.0676   8.3862   H         1 RES1   0.0000
    24 C24     15.6960   8.3301   9.4349   C.ar      1 RES1   0.0000
    25 H25     15.4546   9.0826   8.6917   H         1 RES1   0.0000
    26 C26     16.4593   8.6825  10.5333   C.ar      1 RES1   0.0000
    27 H27     16.8088   9.7045  10.6366   H         1 RES1   0.0000
    28 C28     17.1426   9.0058  13.6805   C.2       1 RES1   0.0000
    29 H29     16.1595   9.4559  13.7702   H         1 RES1   0.0000
    30 C30     18.2194   9.1610  14.5478   C.2       1 RES1   0.0000
    31 C31     18.2850   9.9612  15.7921   C.3       1 RES1   0.0000
    32 F32     17.1458  10.5820  16.0567   F         1 RES1   0.0000
    33 F33     19.2161  10.9012  15.7398   F         1 RES1   0.0000
    34 F34     18.5614   9.2246  16.8571   F         1 RES1   0.0000
    35 N35     19.2953   8.4804  14.1556   N.2       1 RES1   0.0000
    36 N36     22.6544   2.8826  10.4848   N.2       1 RES1  -1.0000
    37 H37     21.8148   2.6148   9.9710   H         1 RES1   0.0000
    38 O38     24.2735   4.5507  11.3608   O.2       1 RES1   0.0000
    39 O39     23.2628   4.9088   9.1873   O.2       1 RES1   0.0000
@<TRIPOS>BOND
     1     1     2    1
     2     1    36    1
     3     1    38    2
     4     1    39    2
     5     2     3   ar
     6     2    10   ar
     7     3     5   ar
     8     3     4    1
     9     5     7   ar
    10     5     6    1
    11     7     8   ar
    12     7    12    1
    13     8    10   ar
    14     8     9    1
    15    10    11    1
    16    12    13    1
    17    12    35    1
    18    13    14    1
    19    13    28    2
    20    14    15   ar
    21    14    26   ar
    22    15    17   ar
    23    15    16    1
    24    17    19   ar
    25    17    18    1
    26    19    20    1
    27    19    24   ar
    28    20    21    1
    29    20    22    1
    30    20    23    1
    31    24    26   ar
    32    24    25    1
    33    26    27    1
    34    28    30    1
    35    28    29    1
    36    30    31    1
    37    30    35    2
    38    31    32    1
    39    31    33    1
    40    31    34    1
    41    36    37    1
@<TRIPOS>SUBSTRUCTURE
     1 RES1        1 GROUP             0 ****  ****    0  
@<TRIPOS>MOLECULE
LIGAND_00031
    39    41     1     0     0
SMALL
USER_CHARGES
****
Generated from the CSD

@<TRIPOS>ATOM
     1 S1      22.6060  10.9493   8.5914   S.o2      1 RES1   0.0000
     2 C2      21.4577  10.3084   9.7948   C.ar      1 RES1   0.0000
     3 C3      20.0998  10.3157   9.5249   C.ar      1 RES1   0.0000
     4 H4      19.7339  10.7012   8.5790   H         1 RES1   0.0000
     5 C5      19.2127   9.8276  10.4672   C.ar      1 RES1   0.0000
     6 H6      18.1517   9.8133  10.2433   H         1 RES1   0.0000
     7 C7      19.6684   9.3528  11.6904   C.ar      1 RES1   0.0000
     8 C8      21.0345   9.3317  11.9364   C.ar      1 RES1   0.0000
     9 H9      21.4048   8.9373  12.8767   H         1 RES1   0.0000
    10 C10     21.9294   9.8110  10.9974   C.ar      1 RES1   0.0000
    11 H11     22.9947   9.7979  11.2030   H         1 RES1   0.0000
    12 N12     18.7825   8.8639  12.7021   N.pl3     1 RES1   0.0000
    13 C13     17.5910   8.1690  12.6760   C.2       1 RES1   0.0000
    14 C14     16.7832   7.7466  11.5090   C.ar      1 RES1   0.0000
    15 C15     16.6069   6.4140  11.1505   C.ar      1 RES1   0.0000
    16 H16     17.0924   5.6325  11.7246   H         1 RES1   0.0000
    17 C17     15.8233   6.0686  10.0644   C.ar      1 RES1   0.0000
    18 H18     15.6857   5.0207   9.8198   H         1 RES1   0.0000
    19 C19     15.2119   7.0328   9.2810   C.ar      1 RES1   0.0000
    20 C20     14.3568   6.6467   8.0992   C.3       1 RES1   0.0000
    21 H21     13.7707   7.4954   7.7531   H         1 RES1   0.0000
    22 H22     14.9737   6.3002   7.2725   H         1 RES1   0.0000
    23 H23     13.6698   5.8469   8.3675   H         1 RES1   0.0000
    24 C24     15.4103   8.3607   9.6216   C.ar      1 RES1   0.0000
    25 H25     14.9499   9.1380   9.0210   H         1 RES1   0.0000
    26 C26     16.1829   8.7153  10.7128   C.ar      1 RES1   0.0000
    27 H27     16.3210   9.7645  10.9525   H         1 RES1   0.0000
    28 C28     17.2581   7.9188  13.9940   C.2       1 RES1   0.0000
    29 H29     16.3895   7.3825  14.3614   H         1 RES1   0.0000
    30 C30     18.2635   8.5092  14.7532   C.2       1 RES1   0.0000
    31 C31     18.3970   8.5438  16.2276   C.3       1 RES1   0.0000
    32 F32     17.4048   7.9180  16.8416   F         1 RES1   0.0000
    33 F33     18.4085   9.7788  16.7050   F         1 RES1   0.0000
    34 F34     19.5138   7.9722  16.6512   F         1 RES1   0.0000
    35 N35     19.1920   9.1004  14.0028   N.2       1 RES1   0.0000
    36 N36     23.9659  10.2218   8.6939   N.2       1 RES1  -1.0000
    37 H37     24.0184   9.2146   8.5409   H         1 RES1   0.0000
    38 O38     22.7278  12.3650   8.9069   O.2       1 RES1   0.0000
    39 O39     21.9691  10.7128   7.3042   O.2       1 RES1   0.0000
@<TRIPOS>BOND
     1     1     2    1
     2     1    36    1
     3     1    38    2
     4     1    39    2
     5     2     3   ar
     6     2    10   ar
     7     3     5   ar
     8     3     4    1
     9     5     7   ar
    10     5     6    1
    11     7     8   ar
    12     7    12    1
    13     8    10   ar
    14     8     9    1
    15    10    11    1
    16    12    13    1
    17    12    35    1
    18    13    14    1
    19    13    28    2
    20    14    15   ar
    21    14    26   ar
    22    15    17   ar
    23    15    16    1
    24    17    19   ar
    25    17    18    1
    26    19    20    1
    27    19    24   ar
    28    20    21    1
    29    20    22    1
    30    20    23    1
    31    24    26   ar
    32    24    25    1
    33    26    27    1
    34    28    30    1
    35    28    29    1
    36    30    31    1
    37    30    35    2
    38    31    32    1
    39    31    33    1
    40    31    34    1
    41    36    37    1
@<TRIPOS>SUBSTRUCTURE
     1 RES1        1 GROUP             0 ****  ****    0  
@<TRIPOS>MOLECULE
LIGAND_00032
    39    41     1     0     0
SMALL
USER_CHARGES
****
Generated from the CSD

@<TRIPOS>ATOM
     1 S1      22.6060  10.9493   8.5914   S.o2      1 RES1   0.0000
     2 C2      21.4577  10.3084   9.7948   C.ar      1 RES1   0.0000
     3 C3      20.0998  10.3157   9.5249   C.ar      1 RES1   0.0000
     4 H4      19.7339  10.7012   8.5790   H         1 RES1   0.0000
     5 C5      19.2127   9.8276  10.4672   C.ar      1 RES1   0.0000
     6 H6      18.1517   9.8133  10.2433   H         1 RES1   0.0000
     7 C7      19.6684   9.3528  11.6904   C.ar      1 RES1   0.0000
     8 C8      21.0345   9.3317  11.9364   C.ar      1 RES1   0.0000
     9 H9      21.4048   8.9373  12.8767   H         1 RES1   0.0000
    10 C10     21.9294   9.8110  10.9974   C.ar      1 RES1   0.0000
    11 H11     22.9947   9.7979  11.2030   H         1 RES1   0.0000
    12 N12     18.7825   8.8639  12.7021   N.pl3     1 RES1   0.0000
    13 C13     17.5910   8.1690  12.6760   C.2       1 RES1   0.0000
    14 C14     16.7832   7.7466  11.5090   C.ar      1 RES1   0.0000
    15 C15     16.6069   6.4140  11.1505   C.ar      1 RES1   0.0000
    16 H16     17.0924   5.6325  11.7246   H         1 RES1   0.0000
    17 C17     15.8233   6.0686  10.0644   C.ar      1 RES1   0.0000
    18 H18     15.6857   5.0207   9.8198   H         1 RES1   0.0000
    19 C19     15.2119   7.0328   9.2810   C.ar      1 RES1   0.0000
    20 C20     14.3568   6.6467   8.0992   C.3       1 RES1   0.0000
    21 H21     13.7707   7.4954   7.7531   H         1 RES1   0.0000
    22 H22     14.9737   6.3002   7.2725   H         1 RES1   0.0000
    23 H23     13.6698   5.8469   8.3675   H         1 RES1   0.0000
    24 C24     15.4103   8.3607   9.6216   C.ar      1 RES1   0.0000
    25 H25     14.9499   9.1380   9.0210   H         1 RES1   0.0000
    26 C26     16.1829   8.7153  10.7128   C.ar      1 RES1   0.0000
    27 H27     16.3210   9.7645  10.9525   H         1 RES1   0.0000
    28 C28     17.2581   7.9188  13.9940   C.2       1 RES1   0.0000
    29 H29     16.3895   7.3825  14.3614   H         1 RES1   0.0000
    30 C30     18.2635   8.5092  14.7532   C.2       1 RES1   0.0000
    31 C31     18.3970   8.5438  16.2276   C.3       1 RES1   0.0000
    32 F32     17.4048   7.9180  16.8416   F         1 RES1   0.0000
    33 F33     18.4085   9.7788  16.7050   F         1 RES1   0.0000
    34 F34     19.5138   7.9722  16.6512   F         1 RES1   0.0000
    35 N35     19.1920   9.1004  14.0028   N.2       1 RES1   0.0000
    36 N36     22.0594  10.7549   7.1587   N.2       1 RES1  -1.0000
    37 H37     21.1792  11.1917   6.8849   H         1 RES1   0.0000
    38 O38     23.8329  10.1962   8.8062   O.2       1 RES1   0.0000
    39 O39     22.7464  12.3595   8.9229   O.2       1 RES1   0.0000
@<TRIPOS>BOND
     1     1     2    1
     2     1    36    1
     3     1    38    2
     4     1    39    2
     5     2     3   ar
     6     2    10   ar
     7     3     5   ar
     8     3     4    1
     9     5     7   ar
    10     5     6    1
    11     7     8   ar
    12     7    12    1
    13     8    10   ar
    14     8     9    1
    15    10    11    1
    16    12    13    1
    17    12    35    1
    18    13    14    1
    19    13    28    2
    20    14    15   ar
    21    14    26   ar
    22    15    17   ar
    23    15    16    1
    24    17    19   ar
    25    17    18    1
    26    19    20    1
    27    19    24   ar
    28    20    21    1
    29    20    22    1
    30    20    23    1
    31    24    26   ar
    32    24    25    1
    33    26    27    1
    34    28    30    1
    35    28    29    1
    36    30    31    1
    37    30    35    2
    38    31    32    1
    39    31    33    1
    40    31    34    1
    41    36    37    1
@<TRIPOS>SUBSTRUCTURE
     1 RES1        1 GROUP             0 ****  ****    0  
@<TRIPOS>MOLECULE
LIGAND_00033
    39    41     1     0     0
SMALL
USER_CHARGES
****
Generated from the CSD

@<TRIPOS>ATOM
     1 S1      12.7767   5.4458  16.9527   S.o2      1 RES1   0.0000
     2 C2      14.1548   6.1922  16.1036   C.ar      1 RES1   0.0000
     3 C3      14.7875   7.2950  16.6516   C.ar      1 RES1   0.0000
     4 H4      14.4529   7.6996  17.6012   H         1 RES1   0.0000
     5 C5      15.8490   7.8770  15.9825   C.ar      1 RES1   0.0000
     6 H6      16.3572   8.7263  16.4258   H         1 RES1   0.0000
     7 C7      16.2709   7.3811  14.7556   C.ar      1 RES1   0.0000
     8 C8      15.6404   6.2613  14.2307   C.ar      1 RES1   0.0000
     9 H9      15.9789   5.8475  13.2867   H         1 RES1   0.0000
    10 C10     14.5828   5.6685  14.8958   C.ar      1 RES1   0.0000
    11 H11     14.0913   4.7986  14.4728   H         1 RES1   0.0000
    12 N12     17.3473   7.9696  14.0191   N.pl3     1 RES1   0.0000
    13 C13     17.5910   8.1690  12.6760   C.2       1 RES1   0.0000
    14 C14     16.7832   7.7466  11.5090   C.ar      1 RES1   0.0000
    15 C15     16.6151   6.4146  11.1446   C.ar      1 RES1   0.0000
    16 H16     17.1073   5.6337  11.7138   H         1 RES1   0.0000
    17 C17     15.8312   6.0689  10.0589   C.ar      1 RES1   0.0000
    18 H18     15.7001   5.0212   9.8097   H         1 RES1   0.0000
    19 C19     15.2113   7.0326   9.2815   C.ar      1 RES1   0.0000
    20 C20     14.3559   6.6462   8.1000   C.3       1 RES1   0.0000
    21 H21     13.7631   7.4925   7.7594   H         1 RES1   0.0000
    22 H22     14.9731   6.3079   7.2702   H         1 RES1   0.0000
    23 H23     13.6750   5.8405   8.3662   H         1 RES1   0.0000
    24 C24     15.4014   8.3602   9.6279   C.ar      1 RES1   0.0000
    25 H25     14.9343   9.1372   9.0321   H         1 RES1   0.0000
    26 C26     16.1743   8.7149  10.7189   C.ar      1 RES1   0.0000
    27 H27     16.3059   9.7639  10.9632   H         1 RES1   0.0000
    28 C28     18.7811   8.8673  12.5965   C.2       1 RES1   0.0000
    29 H29     19.2818   9.2113  11.6975   H         1 RES1   0.0000
    30 C30     19.2106   9.0272  13.9102   C.2       1 RES1   0.0000
    31 C31     20.4350   9.7026  14.3976   C.3       1 RES1   0.0000
    32 F32     21.1699  10.1939  13.4118   F         1 RES1   0.0000
    33 F33     21.2251   8.8868  15.0783   F         1 RES1   0.0000
    34 F34     20.1692  10.7191  15.2034   F         1 RES1   0.0000
    35 N35     18.3734   8.4837  14.7925   N.2       1 RES1   0.0000
    36 N36     12.7063   3.9314  16.6518   N.2       1 RES1  -1.0000
    37 H37     13.4844   3.3237  16.9081   H         1 RES1   0.0000
    38 O38     11.6040   6.1488  16.4535   O.2       1 RES1   0.0000
    39 O39     13.0257   5.6992  18.3641   O.2       1 RES1   0.0000
@<TRIPOS>BOND
     1     1     2    1
     2     1    36    1
     3     1    38    2
     4     1    39    2
     5     2     3   ar
     6     2    10   ar
     7     3     5   ar
     8     3     4    1
     9     5     7   ar
    10     5     6    1
    11     7     8   ar
    12     7    12    1
    13     8    10   ar
    14     8     9    1
    15    10    11    1
    16    12    13    1
    17    12    35    1
    18    13    14    1
    19    13    28    2
    20    14    15   ar
    21    14    26   ar
    22    15    17   ar
    23    15    16    1
    24    17    19   ar
    25    17    18    1
    26    19    20    1
    27    19    24   ar
    28    20    21    1
    29    20    22    1
    30    20    23    1
    31    24    26   ar
    32    24    25    1
    33    26    27    1
    34    28    30    1
    35    28    29    1
    36    30    31    1
    37    30    35    2
    38    31    32    1
    39    31    33    1
    40    31    34    1
    41    36    37    1
@<TRIPOS>SUBSTRUCTURE
     1 RES1        1 GROUP             0 ****  ****    0  
@<TRIPOS>MOLECULE
LIGAND_00034
    39    41     1     0     0
SMALL
USER_CHARGES
****
Generated from the CSD

@<TRIPOS>ATOM
     1 S1      12.7767   5.4458  16.9527   S.o2      1 RES1   0.0000
     2 C2      14.1548   6.1922  16.1036   C.ar      1 RES1   0.0000
     3 C3      14.7875   7.2950  16.6516   C.ar      1 RES1   0.0000
     4 H4      14.4529   7.6996  17.6012   H         1 RES1   0.0000
     5 C5      15.8490   7.8770  15.9825   C.ar      1 RES1   0.0000
     6 H6      16.3572   8.7263  16.4258   H         1 RES1   0.0000
     7 C7      16.2709   7.3811  14.7556   C.ar      1 RES1   0.0000
     8 C8      15.6404   6.2613  14.2307   C.ar      1 RES1   0.0000
     9 H9      15.9789   5.8475  13.2867   H         1 RES1   0.0000
    10 C10     14.5828   5.6685  14.8958   C.ar      1 RES1   0.0000
    11 H11     14.0913   4.7986  14.4728   H         1 RES1   0.0000
    12 N12     17.3473   7.9696  14.0191   N.pl3     1 RES1   0.0000
    13 C13     17.5910   8.1690  12.6760   C.2       1 RES1   0.0000
    14 C14     16.7832   7.7466  11.5090   C.ar      1 RES1   0.0000
    15 C15     16.6151   6.4146  11.1446   C.ar      1 RES1   0.0000
    16 H16     17.1073   5.6337  11.7138   H         1 RES1   0.0000
    17 C17     15.8312   6.0689  10.0589   C.ar      1 RES1   0.0000
    18 H18     15.7001   5.0212   9.8097   H         1 RES1   0.0000
    19 C19     15.2113   7.0326   9.2815   C.ar      1 RES1   0.0000
    20 C20     14.3559   6.6462   8.1000   C.3       1 RES1   0.0000
    21 H21     13.7631   7.4925   7.7594   H         1 RES1   0.0000
    22 H22     14.9731   6.3079   7.2702   H         1 RES1   0.0000
    23 H23     13.6750   5.8405   8.3662   H         1 RES1   0.0000
    24 C24     15.4014   8.3602   9.6279   C.ar      1 RES1   0.0000
    25 H25     14.9343   9.1372   9.0321   H         1 RES1   0.0000
    26 C26     16.1743   8.7149  10.7189   C.ar      1 RES1   0.0000
    27 H27     16.3059   9.7639  10.9632   H         1 RES1   0.0000
    28 C28     18.7811   8.8673  12.5965   C.2       1 RES1   0.0000
    29 H29     19.2818   9.2113  11.6975   H         1 RES1   0.0000
    30 C30     19.2106   9.0272  13.9102   C.2       1 RES1   0.0000
    31 C31     20.4350   9.7026  14.3976   C.3       1 RES1   0.0000
    32 F32     21.1699  10.1939  13.4118   F         1 RES1   0.0000
    33 F33     21.2251   8.8868  15.0783   F         1 RES1   0.0000
    34 F34     20.1692  10.7191  15.2034   F         1 RES1   0.0000
    35 N35     18.3734   8.4837  14.7925   N.2       1 RES1   0.0000
    36 N36     12.9134   5.6301  18.4812   N.2       1 RES1  -1.0000
    37 H37     12.9431   6.5680  18.8813   H         1 RES1   0.0000
    38 O38     12.8197   4.0411  16.5739   O.2       1 RES1   0.0000
    39 O39     11.6025   6.1322  16.4346   O.2       1 RES1   0.0000
@<TRIPOS>BOND
     1     1     2    1
     2     1    36    1
     3     1    38    2
     4     1    39    2
     5     2     3   ar
     6     2    10   ar
     7     3     5   ar
     8     3     4    1
     9     5     7   ar
    10     5     6    1
    11     7     8   ar
    12     7    12    1
    13     8    10   ar
    14     8     9    1
    15    10    11    1
    16    12    13    1
    17    12    35    1
    18    13    14    1
    19    13    28    2
    20    14    15   ar
    21    14    26   ar
    22    15    17   ar
    23    15    16    1
    24    17    19   ar
    25    17    18    1
    26    19    20    1
    27    19    24   ar
    28    20    21    1
    29    20    22    1
    30    20    23    1
    31    24    26   ar
    32    24    25    1
    33    26    27    1
    34    28    30    1
    35    28    29    1
    36    30    31    1
    37    30    35    2
    38    31    32    1
    39    31    33    1
    40    31    34    1
    41    36    37    1
@<TRIPOS>SUBSTRUCTURE
     1 RES1        1 GROUP             0 ****  ****    0  
@<TRIPOS>MOLECULE
LIGAND_00035
    39    41     1     0     0
SMALL
USER_CHARGES
****
Generated from the CSD

@<TRIPOS>ATOM
     1 S1      22.8789   4.0941  10.5605   S.o2      1 RES1   0.0000
     2 C2      21.7026   5.2311  11.2681   C.ar      1 RES1   0.0000
     3 C3      22.1476   6.3801  11.8995   C.ar      1 RES1   0.0000
     4 H4      23.2097   6.5949  11.9556   H         1 RES1   0.0000
     5 C5      21.2308   7.2530  12.4568   C.ar      1 RES1   0.0000
     6 H6      21.5813   8.1636  12.9301   H         1 RES1   0.0000
     7 C7      19.8704   6.9764  12.4106   C.ar      1 RES1   0.0000
     8 C8      19.4393   5.8315  11.7545   C.ar      1 RES1   0.0000
     9 H9      18.3777   5.6187  11.6871   H         1 RES1   0.0000
    10 C10     20.3482   4.9566  11.1881   C.ar      1 RES1   0.0000
    11 H11     20.0013   4.0601  10.6849   H         1 RES1   0.0000
    12 N12     18.8915   7.8395  12.9973   N.pl3     1 RES1   0.0000
    13 C13     17.5910   8.1690  12.6760   C.2       1 RES1   0.0000
    14 C14     16.7832   7.7466  11.5090   C.ar      1 RES1   0.0000
    15 C15     16.2916   6.4545  11.3541   C.ar      1 RES1   0.0000
    16 H16     16.5166   5.6991  12.0990   H         1 RES1   0.0000
    17 C17     15.5216   6.1145  10.2567   C.ar      1 RES1   0.0000
    18 H18     15.1333   5.1050  10.1716   H         1 RES1   0.0000
    19 C19     15.2370   7.0355   9.2626   C.ar      1 RES1   0.0000
    20 C20     14.3941   6.6563   8.0699   C.3       1 RES1   0.0000
    21 H21     14.0739   7.5426   7.5261   H         1 RES1   0.0000
    22 H22     14.9550   6.0225   7.3860   H         1 RES1   0.0000
    23 H23     13.5060   6.1124   8.3847   H         1 RES1   0.0000
    24 C24     15.7499   8.3144   9.4032   C.ar      1 RES1   0.0000
    25 H25     15.5498   9.0547   8.6359   H         1 RES1   0.0000
    26 C26     16.5114   8.6668  10.5030   C.ar      1 RES1   0.0000
    27 H27     16.9007   9.6764  10.5831   H         1 RES1   0.0000
    28 C28     17.1426   9.0058  13.6805   C.2       1 RES1   0.0000
    29 H29     16.1595   9.4559  13.7702   H         1 RES1   0.0000
    30 C30     18.2194   9.1610  14.5478   C.2       1 RES1   0.0000
    31 C31     18.2850   9.9612  15.7921   C.3       1 RES1   0.0000
    32 F32     17.1458  10.5820  16.0567   F         1 RES1   0.0000
    33 F33     19.2161  10.9012  15.7398   F         1 RES1   0.0000
    34 F34     18.5614   9.2246  16.8571   F         1 RES1   0.0000
    35 N35     19.2953   8.4804  14.1556   N.2       1 RES1   0.0000
    36 N36     22.2670   3.3640   9.3432   N.2       1 RES1  -1.0000
    37 H37     21.9544   3.8981   8.5323   H         1 RES1   0.0000
    38 O38     23.2000   3.1689  11.6373   O.2       1 RES1   0.0000
    39 O39     24.0120   4.9214  10.1732   O.2       1 RES1   0.0000
@<TRIPOS>BOND
     1     1     2    1
     2     1    36    1
     3     1    38    2
     4     1    39    2
     5     2     3   ar
     6     2    10   ar
     7     3     5   ar
     8     3     4    1
     9     5     7   ar
    10     5     6    1
    11     7     8   ar
    12     7    12    1
    13     8    10   ar
    14     8     9    1
    15    10    11    1
    16    12    13    1
    17    12    35    1
    18    13    14    1
    19    13    28    2
    20    14    15   ar
    21    14    26   ar
    22    15    17   ar
    23    15    16    1
    24    17    19   ar
    25    17    18    1
    26    19    20    1
    27    19    24   ar
    28    20    21    1
    29    20    22    1
    30    20    23    1
    31    24    26   ar
    32    24    25    1
    33    26    27    1
    34    28    30    1
    35    28    29    1
    36    30    31    1
    37    30    35    2
    38    31    32    1
    39    31    33    1
    40    31    34    1
    41    36    37    1
@<TRIPOS>SUBSTRUCTURE
     1 RES1        1 GROUP             0 ****  ****    0  
@<TRIPOS>MOLECULE
LIGAND_00036
    39    41     1     0     0
SMALL
USER_CHARGES
****
Generated from the CSD

@<TRIPOS>ATOM
     1 S1      22.8789   4.0941  10.5605   S.o2      1 RES1   0.0000
     2 C2      21.7026   5.2311  11.2681   C.ar      1 RES1   0.0000
     3 C3      22.1476   6.3801  11.8995   C.ar      1 RES1   0.0000
     4 H4      23.2097   6.5949  11.9556   H         1 RES1   0.0000
     5 C5      21.2308   7.2530  12.4568   C.ar      1 RES1   0.0000
     6 H6      21.5813   8.1636  12.9301   H         1 RES1   0.0000
     7 C7      19.8704   6.9764  12.4106   C.ar      1 RES1   0.0000
     8 C8      19.4393   5.8315  11.7545   C.ar      1 RES1   0.0000
     9 H9      18.3777   5.6187  11.6871   H         1 RES1   0.0000
    10 C10     20.3482   4.9566  11.1881   C.ar      1 RES1   0.0000
    11 H11     20.0013   4.0601  10.6849   H         1 RES1   0.0000
    12 N12     18.8915   7.8395  12.9973   N.pl3     1 RES1   0.0000
    13 C13     17.5910   8.1690  12.6760   C.2       1 RES1   0.0000
    14 C14     16.7832   7.7466  11.5090   C.ar      1 RES1   0.0000
    15 C15     16.2916   6.4545  11.3541   C.ar      1 RES1   0.0000
    16 H16     16.5166   5.6991  12.0990   H         1 RES1   0.0000
    17 C17     15.5216   6.1145  10.2567   C.ar      1 RES1   0.0000
    18 H18     15.1333   5.1050  10.1716   H         1 RES1   0.0000
    19 C19     15.2370   7.0355   9.2626   C.ar      1 RES1   0.0000
    20 C20     14.3941   6.6563   8.0699   C.3       1 RES1   0.0000
    21 H21     14.0739   7.5426   7.5261   H         1 RES1   0.0000
    22 H22     14.9550   6.0225   7.3860   H         1 RES1   0.0000
    23 H23     13.5060   6.1124   8.3847   H         1 RES1   0.0000
    24 C24     15.7499   8.3144   9.4032   C.ar      1 RES1   0.0000
    25 H25     15.5498   9.0547   8.6359   H         1 RES1   0.0000
    26 C26     16.5114   8.6668  10.5030   C.ar      1 RES1   0.0000
    27 H27     16.9007   9.6764  10.5831   H         1 RES1   0.0000
    28 C28     17.1426   9.0058  13.6805   C.2       1 RES1   0.0000
    29 H29     16.1595   9.4559  13.7702   H         1 RES1   0.0000
    30 C30     18.2194   9.1610  14.5478   C.2       1 RES1   0.0000
    31 C31     18.2850   9.9612  15.7921   C.3       1 RES1   0.0000
    32 F32     17.1458  10.5820  16.0567   F         1 RES1   0.0000
    33 F33     19.2161  10.9012  15.7398   F         1 RES1   0.0000
    34 F34     18.5614   9.2246  16.8571   F         1 RES1   0.0000
    35 N35     19.2953   8.4804  14.1556   N.2       1 RES1   0.0000
    36 N36     24.1459   4.8434  10.0892   N.2       1 RES1  -1.0000
    37 H37     24.7111   5.3626  10.7612   H         1 RES1   0.0000
    38 O38     22.1761   3.4724   9.4477   O.2       1 RES1   0.0000
    39 O39     23.1806   3.1546  11.6303   O.2       1 RES1   0.0000
@<TRIPOS>BOND
     1     1     2    1
     2     1    36    1
     3     1    38    2
     4     1    39    2
     5     2     3   ar
     6     2    10   ar
     7     3     5   ar
     8     3     4    1
     9     5     7   ar
    10     5     6    1
    11     7     8   ar
    12     7    12    1
    13     8    10   ar
    14     8     9    1
    15    10    11    1
    16    12    13    1
    17    12    35    1
    18    13    14    1
    19    13    28    2
    20    14    15   ar
    21    14    26   ar
    22    15    17   ar
    23    15    16    1
    24    17    19   ar
    25    17    18    1
    26    19    20    1
    27    19    24   ar
    28    20    21    1
    29    20    22    1
    30    20    23    1
    31    24    26   ar
    32    24    25    1
    33    26    27    1
    34    28    30    1
    35    28    29    1
    36    30    31    1
    37    30    35    2
    38    31    32    1
    39    31    33    1
    40    31    34    1
    41    36    37    1
@<TRIPOS>SUBSTRUCTURE
     1 RES1        1 GROUP             0 ****  ****    0  
@<TRIPOS>MOLECULE
LIGAND_00037
    39    41     1     0     0
SMALL
USER_CHARGES
****
Generated from the CSD

@<TRIPOS>ATOM
     1 S1      23.1124   4.3125  10.6288   S.o2      1 RES1   0.0000
     2 C2      21.8366   5.3391  11.3329   C.ar      1 RES1   0.0000
     3 C3      20.6511   5.5353  10.6453   C.ar      1 RES1   0.0000
     4 H4      20.4928   5.0577   9.6840   H         1 RES1   0.0000
     5 C5      19.6693   6.3422  11.1914   C.ar      1 RES1   0.0000
     6 H6      18.7326   6.4751  10.6611   H         1 RES1   0.0000
     7 C7      19.8704   6.9764  12.4106   C.ar      1 RES1   0.0000
     8 C8      21.0556   6.7515  13.0976   C.ar      1 RES1   0.0000
     9 H9      21.2131   7.2188  14.0640   H         1 RES1   0.0000
    10 C10     22.0399   5.9408  12.5629   C.ar      1 RES1   0.0000
    11 H11     22.9662   5.7783  13.1041   H         1 RES1   0.0000
    12 N12     18.8915   7.8395  12.9973   N.pl3     1 RES1   0.0000
    13 C13     17.5910   8.1690  12.6760   C.2       1 RES1   0.0000
    14 C14     16.7832   7.7466  11.5090   C.ar      1 RES1   0.0000
    15 C15     16.4142   6.4250  11.2799   C.ar      1 RES1   0.0000
    16 H16     16.7408   5.6480  11.9623   H         1 RES1   0.0000
    17 C17     15.6387   6.0836  10.1868   C.ar      1 RES1   0.0000
    18 H18     15.3476   5.0483  10.0438   H         1 RES1   0.0000
    19 C19     15.2271   7.0356   9.2695   C.ar      1 RES1   0.0000
    20 C20     14.3791   6.6544   8.0810   C.3       1 RES1   0.0000
    21 H21     13.9530   7.5384   7.6113   H         1 RES1   0.0000
    22 H22     14.9719   6.1266   7.3366   H         1 RES1   0.0000
    23 H23     13.5613   6.0046   8.3855   H         1 RES1   0.0000
    24 C24     15.6179   8.3472   9.4827   C.ar      1 RES1   0.0000
    25 H25     15.3168   9.1132   8.7760   H         1 RES1   0.0000
    26 C26     16.3839   8.6999  10.5793   C.ar      1 RES1   0.0000
    27 H27     16.6758   9.7358  10.7173   H         1 RES1   0.0000
    28 C28     17.1426   9.0058  13.6805   C.2       1 RES1   0.0000
    29 H29     16.1595   9.4559  13.7702   H         1 RES1   0.0000
    30 C30     18.2194   9.1610  14.5478   C.2       1 RES1   0.0000
    31 C31     18.2850   9.9612  15.7921   C.3       1 RES1   0.0000
    32 F32     17.1458  10.5820  16.0567   F         1 RES1   0.0000
    33 F33     19.2161  10.9012  15.7398   F         1 RES1   0.0000
    34 F34     18.5614   9.2246  16.8571   F         1 RES1   0.0000
    35 N35     19.2953   8.4804  14.1556   N.2       1 RES1   0.0000
    36 N36     23.9392   3.6297  11.7420   N.2       1 RES1  -1.0000
    37 H37     23.4833   3.0006  12.4030   H         1 RES1   0.0000
    38 O38     23.9265   5.2196   9.8332   O.2       1 RES1   0.0000
    39 O39     22.4010   3.3365   9.8167   O.2       1 RES1   0.0000
@<TRIPOS>BOND
     1     1     2    1
     2     1    36    1
     3     1    38    2
     4     1    39    2
     5     2     3   ar
     6     2    10   ar
     7     3     5   ar
     8     3     4    1
     9     5     7   ar
    10     5     6    1
    11     7     8   ar
    12     7    12    1
    13     8    10   ar
    14     8     9    1
    15    10    11    1
    16    12    13    1
    17    12    35    1
    18    13    14    1
    19    13    28    2
    20    14    15   ar
    21    14    26   ar
    22    15    17   ar
    23    15    16    1
    24    17    19   ar
    25    17    18    1
    26    19    20    1
    27    19    24   ar
    28    20    21    1
    29    20    22    1
    30    20    23    1
    31    24    26   ar
    32    24    25    1
    33    26    27    1
    34    28    30    1
    35    28    29    1
    36    30    31    1
    37    30    35    2
    38    31    32    1
    39    31    33    1
    40    31    34    1
    41    36    37    1
@<TRIPOS>SUBSTRUCTURE
     1 RES1        1 GROUP             0 ****  ****    0  
@<TRIPOS>MOLECULE
LIGAND_00038
    39    41     1     0     0
SMALL
USER_CHARGES
****
Generated from the CSD

@<TRIPOS>ATOM
     1 S1      23.1124   4.3125  10.6288   S.o2      1 RES1   0.0000
     2 C2      21.8366   5.3391  11.3329   C.ar      1 RES1   0.0000
     3 C3      20.6511   5.5353  10.6453   C.ar      1 RES1   0.0000
     4 H4      20.4928   5.0577   9.6840   H         1 RES1   0.0000
     5 C5      19.6693   6.3422  11.1914   C.ar      1 RES1   0.0000
     6 H6      18.7326   6.4751  10.6611   H         1 RES1   0.0000
     7 C7      19.8704   6.9764  12.4106   C.ar      1 RES1   0.0000
     8 C8      21.0556   6.7515  13.0976   C.ar      1 RES1   0.0000
     9 H9      21.2131   7.2188  14.0640   H         1 RES1   0.0000
    10 C10     22.0399   5.9408  12.5629   C.ar      1 RES1   0.0000
    11 H11     22.9662   5.7783  13.1041   H         1 RES1   0.0000
    12 N12     18.8915   7.8395  12.9973   N.pl3     1 RES1   0.0000
    13 C13     17.5910   8.1690  12.6760   C.2       1 RES1   0.0000
    14 C14     16.7832   7.7466  11.5090   C.ar      1 RES1   0.0000
    15 C15     16.4142   6.4250  11.2799   C.ar      1 RES1   0.0000
    16 H16     16.7408   5.6480  11.9623   H         1 RES1   0.0000
    17 C17     15.6387   6.0836  10.1868   C.ar      1 RES1   0.0000
    18 H18     15.3476   5.0483  10.0438   H         1 RES1   0.0000
    19 C19     15.2271   7.0356   9.2695   C.ar      1 RES1   0.0000
    20 C20     14.3791   6.6544   8.0810   C.3       1 RES1   0.0000
    21 H21     13.9530   7.5384   7.6113   H         1 RES1   0.0000
    22 H22     14.9719   6.1266   7.3366   H         1 RES1   0.0000
    23 H23     13.5613   6.0046   8.3855   H         1 RES1   0.0000
    24 C24     15.6179   8.3472   9.4827   C.ar      1 RES1   0.0000
    25 H25     15.3168   9.1132   8.7760   H         1 RES1   0.0000
    26 C26     16.3839   8.6999  10.5793   C.ar      1 RES1   0.0000
    27 H27     16.6758   9.7358  10.7173   H         1 RES1   0.0000
    28 C28     17.1426   9.0058  13.6805   C.2       1 RES1   0.0000
    29 H29     16.1595   9.4559  13.7702   H         1 RES1   0.0000
    30 C30     18.2194   9.1610  14.5478   C.2       1 RES1   0.0000
    31 C31     18.2850   9.9612  15.7921   C.3       1 RES1   0.0000
    32 F32     17.1458  10.5820  16.0567   F         1 RES1   0.0000
    33 F33     19.2161  10.9012  15.7398   F         1 RES1   0.0000
    34 F34     18.5614   9.2246  16.8571   F         1 RES1   0.0000
    35 N35     19.2953   8.4804  14.1556   N.2       1 RES1   0.0000
    36 N36     22.4955   3.2100   9.7382   N.2       1 RES1  -1.0000
    37 H37     21.9370   3.4653   8.9238   H         1 RES1   0.0000
    38 O38     23.8146   3.7500  11.7729   O.2       1 RES1   0.0000
    39 O39     23.9405   5.2245   9.8536   O.2       1 RES1   0.0000
@<TRIPOS>BOND
     1     1     2    1
     2     1    36    1
     3     1    38    2
     4     1    39    2
     5     2     3   ar
     6     2    10   ar
     7     3     5   ar
     8     3     4    1
     9     5     7   ar
    10     5     6    1
    11     7     8   ar
    12     7    12    1
    13     8    10   ar
    14     8     9    1
    15    10    11    1
    16    12    13    1
    17    12    35    1
    18    13    14    1
    19    13    28    2
    20    14    15   ar
    21    14    26   ar
    22    15    17   ar
    23    15    16    1
    24    17    19   ar
    25    17    18    1
    26    19    20    1
    27    19    24   ar
    28    20    21    1
    29    20    22    1
    30    20    23    1
    31    24    26   ar
    32    24    25    1
    33    26    27    1
    34    28    30    1
    35    28    29    1
    36    30    31    1
    37    30    35    2
    38    31    32    1
    39    31    33    1
    40    31    34    1
    41    36    37    1
@<TRIPOS>SUBSTRUCTURE
     1 RES1        1 GROUP             0 ****  ****    0  
@<TRIPOS>MOLECULE
LIGAND_00039
    39    41     1     0     0
SMALL
USER_CHARGES
****
Generated from the CSD

@<TRIPOS>ATOM
     1 S1      22.5390  11.0375   8.5754   S.o2      1 RES1   0.0000
     2 C2      21.4259  10.3626   9.7931   C.ar      1 RES1   0.0000
     3 C3      20.3195   9.6352   9.3885   C.ar      1 RES1   0.0000
     4 H4      20.1341   9.4666   8.3328   H         1 RES1   0.0000
     5 C5      19.4530   9.1237  10.3375   C.ar      1 RES1   0.0000
     6 H6      18.6002   8.5347  10.0182   H         1 RES1   0.0000
     7 C7      19.6684   9.3528  11.6904   C.ar      1 RES1   0.0000
     8 C8      20.7943  10.0650  12.0804   C.ar      1 RES1   0.0000
     9 H9      20.9887  10.2266  13.1354   H         1 RES1   0.0000
    10 C10     21.6700  10.5742  11.1391   C.ar      1 RES1   0.0000
    11 H11     22.5427  11.1368  11.4542   H         1 RES1   0.0000
    12 N12     18.7825   8.8639  12.7021   N.pl3     1 RES1   0.0000
    13 C13     17.5910   8.1690  12.6760   C.2       1 RES1   0.0000
    14 C14     16.7832   7.7466  11.5090   C.ar      1 RES1   0.0000
    15 C15     16.5461   6.4127  11.1930   C.ar      1 RES1   0.0000
    16 H16     16.9816   5.6286  11.8027   H         1 RES1   0.0000
    17 C17     15.7650   6.0688  10.1047   C.ar      1 RES1   0.0000
    18 H18     15.5789   5.0210   9.8936   H         1 RES1   0.0000
    19 C19     15.2166   7.0341   9.2773   C.ar      1 RES1   0.0000
    20 C20     14.3636   6.6497   8.0933   C.3       1 RES1   0.0000
    21 H21     13.8271   7.5139   7.7073   H         1 RES1   0.0000
    22 H22     14.9765   6.2441   7.2909   H         1 RES1   0.0000
    23 H23     13.6326   5.8950   8.3758   H         1 RES1   0.0000
    24 C24     15.4758   8.3616   9.5759   C.ar      1 RES1   0.0000
    25 H25     15.0657   9.1393   8.9404   H         1 RES1   0.0000
    26 C26     16.2463   8.7154  10.6688   C.ar      1 RES1   0.0000
    27 H27     16.4330   9.7642  10.8751   H         1 RES1   0.0000
    28 C28     17.2581   7.9188  13.9940   C.2       1 RES1   0.0000
    29 H29     16.3895   7.3825  14.3614   H         1 RES1   0.0000
    30 C30     18.2635   8.5092  14.7532   C.2       1 RES1   0.0000
    31 C31     18.3970   8.5438  16.2276   C.3       1 RES1   0.0000
    32 F32     17.4048   7.9180  16.8416   F         1 RES1   0.0000
    33 F33     18.4085   9.7788  16.7050   F         1 RES1   0.0000
    34 F34     19.5138   7.9722  16.6512   F         1 RES1   0.0000
    35 N35     19.1920   9.1004  14.0028   N.2       1 RES1   0.0000
    36 N36     23.9761  11.1228   9.1382   N.2       1 RES1  -1.0000
    37 H37     24.4576  10.2750   9.4380   H         1 RES1   0.0000
    38 O38     22.0027  12.3550   8.2671   O.2       1 RES1   0.0000
    39 O39     22.4603  10.1204   7.4480   O.2       1 RES1   0.0000
@<TRIPOS>BOND
     1     1     2    1
     2     1    36    1
     3     1    38    2
     4     1    39    2
     5     2     3   ar
     6     2    10   ar
     7     3     5   ar
     8     3     4    1
     9     5     7   ar
    10     5     6    1
    11     7     8   ar
    12     7    12    1
    13     8    10   ar
    14     8     9    1
    15    10    11    1
    16    12    13    1
    17    12    35    1
    18    13    14    1
    19    13    28    2
    20    14    15   ar
    21    14    26   ar
    22    15    17   ar
    23    15    16    1
    24    17    19   ar
    25    17    18    1
    26    19    20    1
    27    19    24   ar
    28    20    21    1
    29    20    22    1
    30    20    23    1
    31    24    26   ar
    32    24    25    1
    33    26    27    1
    34    28    30    1
    35    28    29    1
    36    30    31    1
    37    30    35    2
    38    31    32    1
    39    31    33    1
    40    31    34    1
    41    36    37    1
@<TRIPOS>SUBSTRUCTURE
     1 RES1        1 GROUP             0 ****  ****    0  
@<TRIPOS>MOLECULE
LIGAND_00040
    39    41     1     0     0
SMALL
USER_CHARGES
****
Generated from the CSD

@<TRIPOS>ATOM
     1 S1      22.5390  11.0375   8.5754   S.o2      1 RES1   0.0000
     2 C2      21.4259  10.3626   9.7931   C.ar      1 RES1   0.0000
     3 C3      20.3195   9.6352   9.3885   C.ar      1 RES1   0.0000
     4 H4      20.1341   9.4666   8.3328   H         1 RES1   0.0000
     5 C5      19.4530   9.1237  10.3375   C.ar      1 RES1   0.0000
     6 H6      18.6002   8.5347  10.0182   H         1 RES1   0.0000
     7 C7      19.6684   9.3528  11.6904   C.ar      1 RES1   0.0000
     8 C8      20.7943  10.0650  12.0804   C.ar      1 RES1   0.0000
     9 H9      20.9887  10.2266  13.1354   H         1 RES1   0.0000
    10 C10     21.6700  10.5742  11.1391   C.ar      1 RES1   0.0000
    11 H11     22.5427  11.1368  11.4542   H         1 RES1   0.0000
    12 N12     18.7825   8.8639  12.7021   N.pl3     1 RES1   0.0000
    13 C13     17.5910   8.1690  12.6760   C.2       1 RES1   0.0000
    14 C14     16.7832   7.7466  11.5090   C.ar      1 RES1   0.0000
    15 C15     16.5461   6.4127  11.1930   C.ar      1 RES1   0.0000
    16 H16     16.9816   5.6286  11.8027   H         1 RES1   0.0000
    17 C17     15.7650   6.0688  10.1047   C.ar      1 RES1   0.0000
    18 H18     15.5789   5.0210   9.8936   H         1 RES1   0.0000
    19 C19     15.2166   7.0341   9.2773   C.ar      1 RES1   0.0000
    20 C20     14.3636   6.6497   8.0933   C.3       1 RES1   0.0000
    21 H21     13.8271   7.5139   7.7073   H         1 RES1   0.0000
    22 H22     14.9765   6.2441   7.2909   H         1 RES1   0.0000
    23 H23     13.6326   5.8950   8.3758   H         1 RES1   0.0000
    24 C24     15.4758   8.3616   9.5759   C.ar      1 RES1   0.0000
    25 H25     15.0657   9.1393   8.9404   H         1 RES1   0.0000
    26 C26     16.2463   8.7154  10.6688   C.ar      1 RES1   0.0000
    27 H27     16.4330   9.7642  10.8751   H         1 RES1   0.0000
    28 C28     17.2581   7.9188  13.9940   C.2       1 RES1   0.0000
    29 H29     16.3895   7.3825  14.3614   H         1 RES1   0.0000
    30 C30     18.2635   8.5092  14.7532   C.2       1 RES1   0.0000
    31 C31     18.3970   8.5438  16.2276   C.3       1 RES1   0.0000
    32 F32     17.4048   7.9180  16.8416   F         1 RES1   0.0000
    33 F33     18.4085   9.7788  16.7050   F         1 RES1   0.0000
    34 F34     19.5138   7.9722  16.6512   F         1 RES1   0.0000
    35 N35     19.1920   9.1004  14.0028   N.2       1 RES1   0.0000
    36 N36     22.5662  10.1500   7.3102   N.2       1 RES1  -1.0000
    37 H37     21.7114   9.9991   6.7746   H         1 RES1   0.0000
    38 O38     23.8364  11.0755   9.2342   O.2       1 RES1   0.0000
    39 O39     22.0162  12.3646   8.2860   O.2       1 RES1   0.0000
@<TRIPOS>BOND
     1     1     2    1
     2     1    36    1
     3     1    38    2
     4     1    39    2
     5     2     3   ar
     6     2    10   ar
     7     3     5   ar
     8     3     4    1
     9     5     7   ar
    10     5     6    1
    11     7     8   ar
    12     7    12    1
    13     8    10   ar
    14     8     9    1
    15    10    11    1
    16    12    13    1
    17    12    35    1
    18    13    14    1
    19    13    28    2
    20    14    15   ar
    21    14    26   ar
    22    15    17   ar
    23    15    16    1
    24    17    19   ar
    25    17    18    1
    26    19    20    1
    27    19    24   ar
    28    20    21    1
    29    20    22    1
    30    20    23    1
    31    24    26   ar
    32    24    25    1
    33    26    27    1
    34    28    30    1
    35    28    29    1
    36    30    31    1
    37    30    35    2
    38    31    32    1
    39    31    33    1
    40    31    34    1
    41    36    37    1
@<TRIPOS>SUBSTRUCTURE
     1 RES1        1 GROUP             0 ****  ****    0  
@<TRIPOS>MOLECULE
LIGAND_00041
    39    41     1     0     0
SMALL
USER_CHARGES
****
Generated from the CSD

@<TRIPOS>ATOM
     1 S1      12.7325   5.5567  16.9767   S.o2      1 RES1   0.0000
     2 C2      14.1241   6.2533  16.1075   C.ar      1 RES1   0.0000
     3 C3      15.2416   6.6662  16.8128   C.ar      1 RES1   0.0000
     4 H4      15.2763   6.5576  17.8918   H         1 RES1   0.0000
     5 C5      16.3138   7.2166  16.1341   C.ar      1 RES1   0.0000
     6 H6      17.1969   7.5176  16.6870   H         1 RES1   0.0000
     7 C7      16.2709   7.3811  14.7556   C.ar      1 RES1   0.0000
     8 C8      15.1523   6.9415  14.0609   C.ar      1 RES1   0.0000
     9 H9      15.1183   7.0387  12.9809   H         1 RES1   0.0000
    10 C10     14.0785   6.3836  14.7301   C.ar      1 RES1   0.0000
    11 H11     13.2053   6.0509  14.1786   H         1 RES1   0.0000
    12 N12     17.3473   7.9696  14.0191   N.pl3     1 RES1   0.0000
    13 C13     17.5910   8.1690  12.6760   C.2       1 RES1   0.0000
    14 C14     16.7832   7.7466  11.5090   C.ar      1 RES1   0.0000
    15 C15     16.5628   6.4126  11.1815   C.ar      1 RES1   0.0000
    16 H16     17.0120   5.6288  11.7815   H         1 RES1   0.0000
    17 C17     15.7810   6.0683  10.0938   C.ar      1 RES1   0.0000
    18 H18     15.6082   5.0202   9.8736   H         1 RES1   0.0000
    19 C19     15.2153   7.0338   9.2783   C.ar      1 RES1   0.0000
    20 C20     14.3617   6.6489   8.0949   C.3       1 RES1   0.0000
    21 H21     13.8115   7.5093   7.7198   H         1 RES1   0.0000
    22 H22     14.9761   6.2594   7.2857   H         1 RES1   0.0000
    23 H23     13.6425   5.8817   8.3737   H         1 RES1   0.0000
    24 C24     15.4578   8.3618   9.5882   C.ar      1 RES1   0.0000
    25 H25     15.0339   9.1398   8.9622   H         1 RES1   0.0000
    26 C26     16.2289   8.7159  10.6807   C.ar      1 RES1   0.0000
    27 H27     16.4023   9.7651  10.8960   H         1 RES1   0.0000
    28 C28     18.7811   8.8673  12.5965   C.2       1 RES1   0.0000
    29 H29     19.2818   9.2113  11.6975   H         1 RES1   0.0000
    30 C30     19.2106   9.0272  13.9102   C.2       1 RES1   0.0000
    31 C31     20.4350   9.7026  14.3976   C.3       1 RES1   0.0000
    32 F32     21.1699  10.1939  13.4118   F         1 RES1   0.0000
    33 F33     21.2251   8.8868  15.0783   F         1 RES1   0.0000
    34 F34     20.1692  10.7191  15.2034   F         1 RES1   0.0000
    35 N35     18.3734   8.4837  14.7925   N.2       1 RES1   0.0000
    36 N36     11.9901   4.5340  16.0866   N.2       1 RES1  -1.0000
    37 H37     12.4786   3.7066  15.7441   H         1 RES1   0.0000
    38 O38     11.8885   6.6958  17.3064   O.2       1 RES1   0.0000
    39 O39     13.3066   4.9227  18.1542   O.2       1 RES1   0.0000
@<TRIPOS>BOND
     1     1     2    1
     2     1    36    1
     3     1    38    2
     4     1    39    2
     5     2     3   ar
     6     2    10   ar
     7     3     5   ar
     8     3     4    1
     9     5     7   ar
    10     5     6    1
    11     7     8   ar
    12     7    12    1
    13     8    10   ar
    14     8     9    1
    15    10    11    1
    16    12    13    1
    17    12    35    1
    18    13    14    1
    19    13    28    2
    20    14    15   ar
    21    14    26   ar
    22    15    17   ar
    23    15    16    1
    24    17    19   ar
    25    17    18    1
    26    19    20    1
    27    19    24   ar
    28    20    21    1
    29    20    22    1
    30    20    23    1
    31    24    26   ar
    32    24    25    1
    33    26    27    1
    34    28    30    1
    35    28    29    1
    36    30    31    1
    37    30    35    2
    38    31    32    1
    39    31    33    1
    40    31    34    1
    41    36    37    1
@<TRIPOS>SUBSTRUCTURE
     1 RES1        1 GROUP             0 ****  ****    0  
@<TRIPOS>MOLECULE
LIGAND_00042
    39    41     1     0     0
SMALL
USER_CHARGES
****
Generated from the CSD

@<TRIPOS>ATOM
     1 S1      12.7325   5.5567  16.9767   S.o2      1 RES1   0.0000
     2 C2      14.1241   6.2533  16.1075   C.ar      1 RES1   0.0000
     3 C3      15.2416   6.6662  16.8128   C.ar      1 RES1   0.0000
     4 H4      15.2763   6.5576  17.8918   H         1 RES1   0.0000
     5 C5      16.3138   7.2166  16.1341   C.ar      1 RES1   0.0000
     6 H6      17.1969   7.5176  16.6870   H         1 RES1   0.0000
     7 C7      16.2709   7.3811  14.7556   C.ar      1 RES1   0.0000
     8 C8      15.1523   6.9415  14.0609   C.ar      1 RES1   0.0000
     9 H9      15.1183   7.0387  12.9809   H         1 RES1   0.0000
    10 C10     14.0785   6.3836  14.7301   C.ar      1 RES1   0.0000
    11 H11     13.2053   6.0509  14.1786   H         1 RES1   0.0000
    12 N12     17.3473   7.9696  14.0191   N.pl3     1 RES1   0.0000
    13 C13     17.5910   8.1690  12.6760   C.2       1 RES1   0.0000
    14 C14     16.7832   7.7466  11.5090   C.ar      1 RES1   0.0000
    15 C15     16.5628   6.4126  11.1815   C.ar      1 RES1   0.0000
    16 H16     17.0120   5.6288  11.7815   H         1 RES1   0.0000
    17 C17     15.7810   6.0683  10.0938   C.ar      1 RES1   0.0000
    18 H18     15.6082   5.0202   9.8736   H         1 RES1   0.0000
    19 C19     15.2153   7.0338   9.2783   C.ar      1 RES1   0.0000
    20 C20     14.3617   6.6489   8.0949   C.3       1 RES1   0.0000
    21 H21     13.8115   7.5093   7.7198   H         1 RES1   0.0000
    22 H22     14.9761   6.2594   7.2857   H         1 RES1   0.0000
    23 H23     13.6425   5.8817   8.3737   H         1 RES1   0.0000
    24 C24     15.4578   8.3618   9.5882   C.ar      1 RES1   0.0000
    25 H25     15.0339   9.1398   8.9622   H         1 RES1   0.0000
    26 C26     16.2289   8.7159  10.6807   C.ar      1 RES1   0.0000
    27 H27     16.4023   9.7651  10.8960   H         1 RES1   0.0000
    28 C28     18.7811   8.8673  12.5965   C.2       1 RES1   0.0000
    29 H29     19.2818   9.2113  11.6975   H         1 RES1   0.0000
    30 C30     19.2106   9.0272  13.9102   C.2       1 RES1   0.0000
    31 C31     20.4350   9.7026  14.3976   C.3       1 RES1   0.0000
    32 F32     21.1699  10.1939  13.4118   F         1 RES1   0.0000
    33 F33     21.2251   8.8868  15.0783   F         1 RES1   0.0000
    34 F34     20.1692  10.7191  15.2034   F         1 RES1   0.0000
    35 N35     18.3734   8.4837  14.7925   N.2       1 RES1   0.0000
    36 N36     13.1982   4.8332  18.2607   N.2       1 RES1  -1.0000
    37 H37     13.6829   5.3536  18.9921   H         1 RES1   0.0000
    38 O38     12.1232   4.6341  16.0300   O.2       1 RES1   0.0000
    39 O39     11.8770   6.6933  17.2842   O.2       1 RES1   0.0000
@<TRIPOS>BOND
     1     1     2    1
     2     1    36    1
     3     1    38    2
     4     1    39    2
     5     2     3   ar
     6     2    10   ar
     7     3     5   ar
     8     3     4    1
     9     5     7   ar
    10     5     6    1
    11     7     8   ar
    12     7    12    1
    13     8    10   ar
    14     8     9    1
    15    10    11    1
    16    12    13    1
    17    12    35    1
    18    13    14    1
    19    13    28    2
    20    14    15   ar
    21    14    26   ar
    22    15    17   ar
    23    15    16    1
    24    17    19   ar
    25    17    18    1
    26    19    20    1
    27    19    24   ar
    28    20    21    1
    29    20    22    1
    30    20    23    1
    31    24    26   ar
    32    24    25    1
    33    26    27    1
    34    28    30    1
    35    28    29    1
    36    30    31    1
    37    30    35    2
    38    31    32    1
    39    31    33    1
    40    31    34    1
    41    36    37    1
@<TRIPOS>SUBSTRUCTURE
     1 RES1        1 GROUP             0 ****  ****    0  
@<TRIPOS>MOLECULE
LIGAND_00043
    39    41     1     0     0
SMALL
USER_CHARGES
****
Generated from the CSD

@<TRIPOS>ATOM
     1 S1      22.8623   4.1497  10.4510   S.o2      1 RES1   0.0000
     2 C2      21.7016   5.2695  11.2100   C.ar      1 RES1   0.0000
     3 C3      21.9811   5.8164  12.4508   C.ar      1 RES1   0.0000
     4 H4      22.9092   5.5729  12.9575   H         1 RES1   0.0000
     5 C5      21.0715   6.6757  13.0400   C.ar      1 RES1   0.0000
     6 H6      21.3039   7.1206  14.0014   H         1 RES1   0.0000
     7 C7      19.8704   6.9764  12.4106   C.ar      1 RES1   0.0000
     8 C8      19.6154   6.4375  11.1569   C.ar      1 RES1   0.0000
     9 H9      18.6934   6.6870  10.6426   H         1 RES1   0.0000
    10 C10     20.5220   5.5830  10.5569   C.ar      1 RES1   0.0000
    11 H11     20.3093   5.1603   9.5805   H         1 RES1   0.0000
    12 N12     18.8915   7.8395  12.9973   N.pl3     1 RES1   0.0000
    13 C13     17.5910   8.1690  12.6760   C.2       1 RES1   0.0000
    14 C14     16.7832   7.7466  11.5090   C.ar      1 RES1   0.0000
    15 C15     16.4098   6.4257  11.2827   C.ar      1 RES1   0.0000
    16 H16     16.7327   5.6493  11.9675   H         1 RES1   0.0000
    17 C17     15.6344   6.0844  10.1895   C.ar      1 RES1   0.0000
    18 H18     15.3399   5.0498  10.0486   H         1 RES1   0.0000
    19 C19     15.2274   7.0356   9.2692   C.ar      1 RES1   0.0000
    20 C20     14.3796   6.6545   8.0806   C.3       1 RES1   0.0000
    21 H21     13.9573   7.5389   7.6082   H         1 RES1   0.0000
    22 H22     14.9715   6.1228   7.3383   H         1 RES1   0.0000
    23 H23     13.5591   6.0084   8.3856   H         1 RES1   0.0000
    24 C24     15.6227   8.3463   9.4797   C.ar      1 RES1   0.0000
    25 H25     15.3252   9.1117   8.7708   H         1 RES1   0.0000
    26 C26     16.3885   8.6991  10.5764   C.ar      1 RES1   0.0000
    27 H27     16.6839   9.7342  10.7123   H         1 RES1   0.0000
    28 C28     17.1426   9.0058  13.6805   C.2       1 RES1   0.0000
    29 H29     16.1595   9.4559  13.7702   H         1 RES1   0.0000
    30 C30     18.2194   9.1610  14.5478   C.2       1 RES1   0.0000
    31 C31     18.2850   9.9612  15.7921   C.3       1 RES1   0.0000
    32 F32     17.1458  10.5820  16.0567   F         1 RES1   0.0000
    33 F33     19.2161  10.9012  15.7398   F         1 RES1   0.0000
    34 F34     18.5614   9.2246  16.8571   F         1 RES1   0.0000
    35 N35     19.2953   8.4804  14.1556   N.2       1 RES1   0.0000
    36 N36     22.7863   4.2473   8.9103   N.2       1 RES1  -1.0000
    37 H37     22.9895   5.1318   8.4446   H         1 RES1   0.0000
    38 O38     22.4748   2.8297  10.9265   O.2       1 RES1   0.0000
    39 O39     24.1646   4.5669  10.9492   O.2       1 RES1   0.0000
@<TRIPOS>BOND
     1     1     2    1
     2     1    36    1
     3     1    38    2
     4     1    39    2
     5     2     3   ar
     6     2    10   ar
     7     3     5   ar
     8     3     4    1
     9     5     7   ar
    10     5     6    1
    11     7     8   ar
    12     7    12    1
    13     8    10   ar
    14     8     9    1
    15    10    11    1
    16    12    13    1
    17    12    35    1
    18    13    14    1
    19    13    28    2
    20    14    15   ar
    21    14    26   ar
    22    15    17   ar
    23    15    16    1
    24    17    19   ar
    25    17    18    1
    26    19    20    1
    27    19    24   ar
    28    20    21    1
    29    20    22    1
    30    20    23    1
    31    24    26   ar
    32    24    25    1
    33    26    27    1
    34    28    30    1
    35    28    29    1
    36    30    31    1
    37    30    35    2
    38    31    32    1
    39    31    33    1
    40    31    34    1
    41    36    37    1
@<TRIPOS>SUBSTRUCTURE
     1 RES1        1 GROUP             0 ****  ****    0  
@<TRIPOS>MOLECULE
LIGAND_00044
    39    41     1     0     0
SMALL
USER_CHARGES
****
Generated from the CSD

@<TRIPOS>ATOM
     1 S1      22.8623   4.1497  10.4510   S.o2      1 RES1   0.0000
     2 C2      21.7016   5.2695  11.2100   C.ar      1 RES1   0.0000
     3 C3      21.9811   5.8164  12.4508   C.ar      1 RES1   0.0000
     4 H4      22.9092   5.5729  12.9575   H         1 RES1   0.0000
     5 C5      21.0715   6.6757  13.0400   C.ar      1 RES1   0.0000
     6 H6      21.3039   7.1206  14.0014   H         1 RES1   0.0000
     7 C7      19.8704   6.9764  12.4106   C.ar      1 RES1   0.0000
     8 C8      19.6154   6.4375  11.1569   C.ar      1 RES1   0.0000
     9 H9      18.6934   6.6870  10.6426   H         1 RES1   0.0000
    10 C10     20.5220   5.5830  10.5569   C.ar      1 RES1   0.0000
    11 H11     20.3093   5.1603   9.5805   H         1 RES1   0.0000
    12 N12     18.8915   7.8395  12.9973   N.pl3     1 RES1   0.0000
    13 C13     17.5910   8.1690  12.6760   C.2       1 RES1   0.0000
    14 C14     16.7832   7.7466  11.5090   C.ar      1 RES1   0.0000
    15 C15     16.4098   6.4257  11.2827   C.ar      1 RES1   0.0000
    16 H16     16.7327   5.6493  11.9675   H         1 RES1   0.0000
    17 C17     15.6344   6.0844  10.1895   C.ar      1 RES1   0.0000
    18 H18     15.3399   5.0498  10.0486   H         1 RES1   0.0000
    19 C19     15.2274   7.0356   9.2692   C.ar      1 RES1   0.0000
    20 C20     14.3796   6.6545   8.0806   C.3       1 RES1   0.0000
    21 H21     13.9573   7.5389   7.6082   H         1 RES1   0.0000
    22 H22     14.9715   6.1228   7.3383   H         1 RES1   0.0000
    23 H23     13.5591   6.0084   8.3856   H         1 RES1   0.0000
    24 C24     15.6227   8.3463   9.4797   C.ar      1 RES1   0.0000
    25 H25     15.3252   9.1117   8.7708   H         1 RES1   0.0000
    26 C26     16.3885   8.6991  10.5764   C.ar      1 RES1   0.0000
    27 H27     16.6839   9.7342  10.7123   H         1 RES1   0.0000
    28 C28     17.1426   9.0058  13.6805   C.2       1 RES1   0.0000
    29 H29     16.1595   9.4559  13.7702   H         1 RES1   0.0000
    30 C30     18.2194   9.1610  14.5478   C.2       1 RES1   0.0000
    31 C31     18.2850   9.9612  15.7921   C.3       1 RES1   0.0000
    32 F32     17.1458  10.5820  16.0567   F         1 RES1   0.0000
    33 F33     19.2161  10.9012  15.7398   F         1 RES1   0.0000
    34 F34     18.5614   9.2246  16.8571   F         1 RES1   0.0000
    35 N35     19.2953   8.4804  14.1556   N.2       1 RES1   0.0000
    36 N36     24.3071   4.4839  10.8868   N.2       1 RES1  -1.0000
    37 H37     24.5652   4.4415  11.8728   H         1 RES1   0.0000
    38 O38     22.6764   4.3315   9.0189   O.2       1 RES1   0.0000
    39 O39     22.4589   2.8277  10.9071   O.2       1 RES1   0.0000
@<TRIPOS>BOND
     1     1     2    1
     2     1    36    1
     3     1    38    2
     4     1    39    2
     5     2     3   ar
     6     2    10   ar
     7     3     5   ar
     8     3     4    1
     9     5     7   ar
    10     5     6    1
    11     7     8   ar
    12     7    12    1
    13     8    10   ar
    14     8     9    1
    15    10    11    1
    16    12    13    1
    17    12    35    1
    18    13    14    1
    19    13    28    2
    20    14    15   ar
    21    14    26   ar
    22    15    17   ar
    23    15    16    1
    24    17    19   ar
    25    17    18    1
    26    19    20    1
    27    19    24   ar
    28    20    21    1
    29    20    22    1
    30    20    23    1
    31    24    26   ar
    32    24    25    1
    33    26    27    1
    34    28    30    1
    35    28    29    1
    36    30    31    1
    37    30    35    2
    38    31    32    1
    39    31    33    1
    40    31    34    1
    41    36    37    1
@<TRIPOS>SUBSTRUCTURE
     1 RES1        1 GROUP             0 ****  ****    0  
@<TRIPOS>MOLECULE
LIGAND_00045
    39    41     1     0     0
SMALL
USER_CHARGES
****
Generated from the CSD

@<TRIPOS>ATOM
     1 S1      21.1412   2.1184  12.5743   S.o2      1 RES1   0.0000
     2 C2      20.3798   3.7104  12.8254   C.ar      1 RES1   0.0000
     3 C3      19.0524   3.7872  13.2112   C.ar      1 RES1   0.0000
     4 H4      18.4777   2.8809  13.3709   H         1 RES1   0.0000
     5 C5      18.4638   5.0256  13.3933   C.ar      1 RES1   0.0000
     6 H6      17.4306   5.0821  13.7181   H         1 RES1   0.0000
     7 C7      19.1837   6.1921  13.1698   C.ar      1 RES1   0.0000
     8 C8      20.5198   6.0978  12.8049   C.ar      1 RES1   0.0000
     9 H9      21.1006   7.0017  12.6547   H         1 RES1   0.0000
    10 C10     21.1188   4.8641  12.6274   C.ar      1 RES1   0.0000
    11 H11     22.1614   4.8013  12.3338   H         1 RES1   0.0000
    12 N12     18.6051   7.4920  13.3214   N.pl3     1 RES1   0.0000
    13 C13     17.5910   8.1690  12.6760   C.2       1 RES1   0.0000
    14 C14     16.7832   7.7466  11.5090   C.ar      1 RES1   0.0000
    15 C15     16.4286   6.4226  11.2708   C.ar      1 RES1   0.0000
    16 H16     16.7671   5.6441  11.9455   H         1 RES1   0.0000
    17 C17     15.6525   6.0810  10.1782   C.ar      1 RES1   0.0000
    18 H18     15.3729   5.0436  10.0280   H         1 RES1   0.0000
    19 C19     15.2259   7.0355   9.2703   C.ar      1 RES1   0.0000
    20 C20     14.3774   6.6540   8.0823   C.3       1 RES1   0.0000
    21 H21     13.9390   7.5367   7.6216   H         1 RES1   0.0000
    22 H22     14.9731   6.1392   7.3312   H         1 RES1   0.0000
    23 H23     13.5685   5.9923   8.3850   H         1 RES1   0.0000
    24 C24     15.6024   8.3498   9.4925   C.ar      1 RES1   0.0000
    25 H25     15.2893   9.1180   8.7933   H         1 RES1   0.0000
    26 C26     16.3688   8.7027  10.5887   C.ar      1 RES1   0.0000
    27 H27     16.6493   9.7407  10.7339   H         1 RES1   0.0000
    28 C28     17.4466   9.3744  13.3367   C.2       1 RES1   0.0000
    29 H29     16.7351  10.1632  13.1158   H         1 RES1   0.0000
    30 C30     18.4127   9.3713  14.3379   C.2       1 RES1   0.0000
    31 C31     18.6984  10.4254  15.3380   C.3       1 RES1   0.0000
    32 F32     17.9014  11.4751  15.2105   F         1 RES1   0.0000
    33 F33     19.9363  10.8863  15.2467   F         1 RES1   0.0000
    34 F34     18.5526   9.9988  16.5830   F         1 RES1   0.0000
    35 N35     19.1383   8.2541  14.3462   N.2       1 RES1   0.0000
    36 N36     22.6528   2.1809  12.8908   N.2       1 RES1  -1.0000
    37 H37     22.9678   2.4359  13.8269   H         1 RES1   0.0000
    38 O38     20.8970   1.8030  11.1745   O.2       1 RES1   0.0000
    39 O39     20.4416   1.2222  13.4830   O.2       1 RES1   0.0000
@<TRIPOS>BOND
     1     1     2    1
     2     1    36    1
     3     1    38    2
     4     1    39    2
     5     2     3   ar
     6     2    10   ar
     7     3     5   ar
     8     3     4    1
     9     5     7   ar
    10     5     6    1
    11     7     8   ar
    12     7    12    1
    13     8    10   ar
    14     8     9    1
    15    10    11    1
    16    12    13    1
    17    12    35    1
    18    13    14    1
    19    13    28    2
    20    14    15   ar
    21    14    26   ar
    22    15    17   ar
    23    15    16    1
    24    17    19   ar
    25    17    18    1
    26    19    20    1
    27    19    24   ar
    28    20    21    1
    29    20    22    1
    30    20    23    1
    31    24    26   ar
    32    24    25    1
    33    26    27    1
    34    28    30    1
    35    28    29    1
    36    30    31    1
    37    30    35    2
    38    31    32    1
    39    31    33    1
    40    31    34    1
    41    36    37    1
@<TRIPOS>SUBSTRUCTURE
     1 RES1        1 GROUP             0 ****  ****    0  
@<TRIPOS>MOLECULE
LIGAND_00046
    39    41     1     0     0
SMALL
USER_CHARGES
****
Generated from the CSD

@<TRIPOS>ATOM
     1 S1      21.1412   2.1184  12.5743   S.o2      1 RES1   0.0000
     2 C2      20.3798   3.7104  12.8254   C.ar      1 RES1   0.0000
     3 C3      19.0524   3.7872  13.2112   C.ar      1 RES1   0.0000
     4 H4      18.4777   2.8809  13.3709   H         1 RES1   0.0000
     5 C5      18.4638   5.0256  13.3933   C.ar      1 RES1   0.0000
     6 H6      17.4306   5.0821  13.7181   H         1 RES1   0.0000
     7 C7      19.1837   6.1921  13.1698   C.ar      1 RES1   0.0000
     8 C8      20.5198   6.0978  12.8049   C.ar      1 RES1   0.0000
     9 H9      21.1006   7.0017  12.6547   H         1 RES1   0.0000
    10 C10     21.1188   4.8641  12.6274   C.ar      1 RES1   0.0000
    11 H11     22.1614   4.8013  12.3338   H         1 RES1   0.0000
    12 N12     18.6051   7.4920  13.3214   N.pl3     1 RES1   0.0000
    13 C13     17.5910   8.1690  12.6760   C.2       1 RES1   0.0000
    14 C14     16.7832   7.7466  11.5090   C.ar      1 RES1   0.0000
    15 C15     16.4286   6.4226  11.2708   C.ar      1 RES1   0.0000
    16 H16     16.7671   5.6441  11.9455   H         1 RES1   0.0000
    17 C17     15.6525   6.0810  10.1782   C.ar      1 RES1   0.0000
    18 H18     15.3729   5.0436  10.0280   H         1 RES1   0.0000
    19 C19     15.2259   7.0355   9.2703   C.ar      1 RES1   0.0000
    20 C20     14.3774   6.6540   8.0823   C.3       1 RES1   0.0000
    21 H21     13.9390   7.5367   7.6216   H         1 RES1   0.0000
    22 H22     14.9731   6.1392   7.3312   H         1 RES1   0.0000
    23 H23     13.5685   5.9923   8.3850   H         1 RES1   0.0000
    24 C24     15.6024   8.3498   9.4925   C.ar      1 RES1   0.0000
    25 H25     15.2893   9.1180   8.7933   H         1 RES1   0.0000
    26 C26     16.3688   8.7027  10.5887   C.ar      1 RES1   0.0000
    27 H27     16.6493   9.7407  10.7339   H         1 RES1   0.0000
    28 C28     17.4466   9.3744  13.3367   C.2       1 RES1   0.0000
    29 H29     16.7351  10.1632  13.1158   H         1 RES1   0.0000
    30 C30     18.4127   9.3713  14.3379   C.2       1 RES1   0.0000
    31 C31     18.6984  10.4254  15.3380   C.3       1 RES1   0.0000
    32 F32     17.9014  11.4751  15.2105   F         1 RES1   0.0000
    33 F33     19.9363  10.8863  15.2467   F         1 RES1   0.0000
    34 F34     18.5526   9.9988  16.5830   F         1 RES1   0.0000
    35 N35     19.1383   8.2541  14.3462   N.2       1 RES1   0.0000
    36 N36     20.4975   1.0552  13.4933   N.2       1 RES1  -1.0000
    37 H37     19.5028   0.8446  13.4108   H         1 RES1   0.0000
    38 O38     22.5475   2.3218  12.8896   O.2       1 RES1   0.0000
    39 O39     20.9182   1.8150  11.1685   O.2       1 RES1   0.0000
@<TRIPOS>BOND
     1     1     2    1
     2     1    36    1
     3     1    38    2
     4     1    39    2
     5     2     3   ar
     6     2    10   ar
     7     3     5   ar
     8     3     4    1
     9     5     7   ar
    10     5     6    1
    11     7     8   ar
    12     7    12    1
    13     8    10   ar
    14     8     9    1
    15    10    11    1
    16    12    13    1
    17    12    35    1
    18    13    14    1
    19    13    28    2
    20    14    15   ar
    21    14    26   ar
    22    15    17   ar
    23    15    16    1
    24    17    19   ar
    25    17    18    1
    26    19    20    1
    27    19    24   ar
    28    20    21    1
    29    20    22    1
    30    20    23    1
    31    24    26   ar
    32    24    25    1
    33    26    27    1
    34    28    30    1
    35    28    29    1
    36    30    31    1
    37    30    35    2
    38    31    32    1
    39    31    33    1
    40    31    34    1
    41    36    37    1
@<TRIPOS>SUBSTRUCTURE
     1 RES1        1 GROUP             0 ****  ****    0  
@<TRIPOS>MOLECULE
LIGAND_00047
    39    41     1     0     0
SMALL
USER_CHARGES
****
Generated from the CSD

@<TRIPOS>ATOM
     1 S1      15.1497   2.8819  16.6207   S.o2      1 RES1   0.0000
     2 C2      15.9009   4.2674  15.7879   C.ar      1 RES1   0.0000
     3 C3      16.7793   4.0490  14.7403   C.ar      1 RES1   0.0000
     4 H4      17.0037   3.0373  14.4187   H         1 RES1   0.0000
     5 C5      17.3681   5.1276  14.1054   C.ar      1 RES1   0.0000
     6 H6      18.0376   4.9540  13.2702   H         1 RES1   0.0000
     7 C7      17.1055   6.4258  14.5237   C.ar      1 RES1   0.0000
     8 C8      16.2053   6.6285  15.5608   C.ar      1 RES1   0.0000
     9 H9      15.9704   7.6390  15.8782   H         1 RES1   0.0000
    10 C10     15.6064   5.5566  16.1969   C.ar      1 RES1   0.0000
    11 H11     14.9107   5.7256  17.0122   H         1 RES1   0.0000
    12 N12     17.7135   7.5671  13.9113   N.pl3     1 RES1   0.0000
    13 C13     17.5910   8.1690  12.6760   C.2       1 RES1   0.0000
    14 C14     16.7832   7.7466  11.5090   C.ar      1 RES1   0.0000
    15 C15     16.5488   6.4127  11.1911   C.ar      1 RES1   0.0000
    16 H16     16.9866   5.6286  11.7992   H         1 RES1   0.0000
    17 C17     15.7676   6.0687  10.1030   C.ar      1 RES1   0.0000
    18 H18     15.5837   5.0209   9.8903   H         1 RES1   0.0000
    19 C19     15.2164   7.0341   9.2774   C.ar      1 RES1   0.0000
    20 C20     14.3633   6.6496   8.0936   C.3       1 RES1   0.0000
    21 H21     13.8246   7.5132   7.7094   H         1 RES1   0.0000
    22 H22     14.9765   6.2466   7.2900   H         1 RES1   0.0000
    23 H23     13.6342   5.8928   8.3754   H         1 RES1   0.0000
    24 C24     15.4728   8.3616   9.5779   C.ar      1 RES1   0.0000
    25 H25     15.0605   9.1394   8.9439   H         1 RES1   0.0000
    26 C26     16.2435   8.7155  10.6708   C.ar      1 RES1   0.0000
    27 H27     16.4280   9.7644  10.8785   H         1 RES1   0.0000
    28 C28     18.3926   9.2944  12.7109   C.2       1 RES1   0.0000
    29 H29     18.5378  10.0220  11.9191   H         1 RES1   0.0000
    30 C30     18.9850   9.2940  13.9697   C.2       1 RES1   0.0000
    31 C31     19.9396  10.2761  14.5329   C.3       1 RES1   0.0000
    32 F32     20.2247  11.2510  13.6834   F         1 RES1   0.0000
    33 F33     21.0961   9.7233  14.8648   F         1 RES1   0.0000
    34 F34     19.4808  10.8617  15.6282   F         1 RES1   0.0000
    35 N35     18.6061   8.2561  14.7139   N.2       1 RES1   0.0000
    36 N36     13.7546   3.2643  17.1654   N.2       1 RES1  -1.0000
    37 H37     13.0214   3.5655  16.5234   H         1 RES1   0.0000
    38 O38     16.0728   2.5449  17.6944   O.2       1 RES1   0.0000
    39 O39     15.0608   1.8405  15.6079   O.2       1 RES1   0.0000
@<TRIPOS>BOND
     1     1     2    1
     2     1    36    1
     3     1    38    2
     4     1    39    2
     5     2     3   ar
     6     2    10   ar
     7     3     5   ar
     8     3     4    1
     9     5     7   ar
    10     5     6    1
    11     7     8   ar
    12     7    12    1
    13     8    10   ar
    14     8     9    1
    15    10    11    1
    16    12    13    1
    17    12    35    1
    18    13    14    1
    19    13    28    2
    20    14    15   ar
    21    14    26   ar
    22    15    17   ar
    23    15    16    1
    24    17    19   ar
    25    17    18    1
    26    19    20    1
    27    19    24   ar
    28    20    21    1
    29    20    22    1
    30    20    23    1
    31    24    26   ar
    32    24    25    1
    33    26    27    1
    34    28    30    1
    35    28    29    1
    36    30    31    1
    37    30    35    2
    38    31    32    1
    39    31    33    1
    40    31    34    1
    41    36    37    1
@<TRIPOS>SUBSTRUCTURE
     1 RES1        1 GROUP             0 ****  ****    0  
@<TRIPOS>MOLECULE
LIGAND_00048
    39    41     1     0     0
SMALL
USER_CHARGES
****
Generated from the CSD

@<TRIPOS>ATOM
     1 S1      15.1497   2.8819  16.6207   S.o2      1 RES1   0.0000
     2 C2      15.9009   4.2674  15.7879   C.ar      1 RES1   0.0000
     3 C3      16.7793   4.0490  14.7403   C.ar      1 RES1   0.0000
     4 H4      17.0037   3.0373  14.4187   H         1 RES1   0.0000
     5 C5      17.3681   5.1276  14.1054   C.ar      1 RES1   0.0000
     6 H6      18.0376   4.9540  13.2702   H         1 RES1   0.0000
     7 C7      17.1055   6.4258  14.5237   C.ar      1 RES1   0.0000
     8 C8      16.2053   6.6285  15.5608   C.ar      1 RES1   0.0000
     9 H9      15.9704   7.6390  15.8782   H         1 RES1   0.0000
    10 C10     15.6064   5.5566  16.1969   C.ar      1 RES1   0.0000
    11 H11     14.9107   5.7256  17.0122   H         1 RES1   0.0000
    12 N12     17.7135   7.5671  13.9113   N.pl3     1 RES1   0.0000
    13 C13     17.5910   8.1690  12.6760   C.2       1 RES1   0.0000
    14 C14     16.7832   7.7466  11.5090   C.ar      1 RES1   0.0000
    15 C15     16.5488   6.4127  11.1911   C.ar      1 RES1   0.0000
    16 H16     16.9866   5.6286  11.7992   H         1 RES1   0.0000
    17 C17     15.7676   6.0687  10.1030   C.ar      1 RES1   0.0000
    18 H18     15.5837   5.0209   9.8903   H         1 RES1   0.0000
    19 C19     15.2164   7.0341   9.2774   C.ar      1 RES1   0.0000
    20 C20     14.3633   6.6496   8.0936   C.3       1 RES1   0.0000
    21 H21     13.8246   7.5132   7.7094   H         1 RES1   0.0000
    22 H22     14.9765   6.2466   7.2900   H         1 RES1   0.0000
    23 H23     13.6342   5.8928   8.3754   H         1 RES1   0.0000
    24 C24     15.4728   8.3616   9.5779   C.ar      1 RES1   0.0000
    25 H25     15.0605   9.1394   8.9439   H         1 RES1   0.0000
    26 C26     16.2435   8.7155  10.6708   C.ar      1 RES1   0.0000
    27 H27     16.4280   9.7644  10.8785   H         1 RES1   0.0000
    28 C28     18.3926   9.2944  12.7109   C.2       1 RES1   0.0000
    29 H29     18.5378  10.0220  11.9191   H         1 RES1   0.0000
    30 C30     18.9850   9.2940  13.9697   C.2       1 RES1   0.0000
    31 C31     19.9396  10.2761  14.5329   C.3       1 RES1   0.0000
    32 F32     20.2247  11.2510  13.6834   F         1 RES1   0.0000
    33 F33     21.0961   9.7233  14.8648   F         1 RES1   0.0000
    34 F34     19.4808  10.8617  15.6282   F         1 RES1   0.0000
    35 N35     18.6061   8.2561  14.7139   N.2       1 RES1   0.0000
    36 N36     14.9812   1.6894  15.6518   N.2       1 RES1  -1.0000
    37 H37     15.8004   1.2702  15.2116   H         1 RES1   0.0000
    38 O38     13.8650   3.3791  17.0907   O.2       1 RES1   0.0000
    39 O39     16.0610   2.5613  17.7093   O.2       1 RES1   0.0000
@<TRIPOS>BOND
     1     1     2    1
     2     1    36    1
     3     1    38    2
     4     1    39    2
     5     2     3   ar
     6     2    10   ar
     7     3     5   ar
     8     3     4    1
     9     5     7   ar
    10     5     6    1
    11     7     8   ar
    12     7    12    1
    13     8    10   ar
    14     8     9    1
    15    10    11    1
    16    12    13    1
    17    12    35    1
    18    13    14    1
    19    13    28    2
    20    14    15   ar
    21    14    26   ar
    22    15    17   ar
    23    15    16    1
    24    17    19   ar
    25    17    18    1
    26    19    20    1
    27    19    24   ar
    28    20    21    1
    29    20    22    1
    30    20    23    1
    31    24    26   ar
    32    24    25    1
    33    26    27    1
    34    28    30    1
    35    28    29    1
    36    30    31    1
    37    30    35    2
    38    31    32    1
    39    31    33    1
    40    31    34    1
    41    36    37    1
@<TRIPOS>SUBSTRUCTURE
     1 RES1        1 GROUP             0 ****  ****    0  
@<TRIPOS>MOLECULE
LIGAND_00049
    39    41     1     0     0
SMALL
USER_CHARGES
****
Generated from the CSD

@<TRIPOS>ATOM
     1 S1      15.1896   2.7025  16.3258   S.o2      1 RES1   0.0000
     2 C2      15.9519   4.1578  15.6344   C.ar      1 RES1   0.0000
     3 C3      15.6259   5.4089  16.1297   C.ar      1 RES1   0.0000
     4 H4      14.9155   5.5047  16.9442   H         1 RES1   0.0000
     5 C5      16.2120   6.5354  15.5814   C.ar      1 RES1   0.0000
     6 H6      15.9722   7.5121  15.9872   H         1 RES1   0.0000
     7 C7      17.1055   6.4258  14.5237   C.ar      1 RES1   0.0000
     8 C8      17.4386   5.1628  14.0535   C.ar      1 RES1   0.0000
     9 H9      18.1565   5.0623  13.2464   H         1 RES1   0.0000
    10 C10     16.8631   4.0304  14.6001   C.ar      1 RES1   0.0000
    11 H11     17.1238   3.0483  14.2197   H         1 RES1   0.0000
    12 N12     17.7135   7.5671  13.9113   N.pl3     1 RES1   0.0000
    13 C13     17.5910   8.1690  12.6760   C.2       1 RES1   0.0000
    14 C14     16.7832   7.7466  11.5090   C.ar      1 RES1   0.0000
    15 C15     16.5532   6.4126  11.1881   C.ar      1 RES1   0.0000
    16 H16     16.9946   5.6286  11.7937   H         1 RES1   0.0000
    17 C17     15.7719   6.0685  10.1001   C.ar      1 RES1   0.0000
    18 H18     15.5914   5.0206   9.8851   H         1 RES1   0.0000
    19 C19     15.2161   7.0340   9.2777   C.ar      1 RES1   0.0000
    20 C20     14.3628   6.6494   8.0940   C.3       1 RES1   0.0000
    21 H21     13.8205   7.5120   7.7126   H         1 RES1   0.0000
    22 H22     14.9763   6.2507   7.2886   H         1 RES1   0.0000
    23 H23     13.6368   5.8893   8.3749   H         1 RES1   0.0000
    24 C24     15.4681   8.3617   9.5812   C.ar      1 RES1   0.0000
    25 H25     15.0521   9.1396   8.9497   H         1 RES1   0.0000
    26 C26     16.2389   8.7157  10.6739   C.ar      1 RES1   0.0000
    27 H27     16.4199   9.7647  10.8840   H         1 RES1   0.0000
    28 C28     18.3926   9.2944  12.7109   C.2       1 RES1   0.0000
    29 H29     18.5378  10.0220  11.9191   H         1 RES1   0.0000
    30 C30     18.9850   9.2940  13.9697   C.2       1 RES1   0.0000
    31 C31     19.9396  10.2761  14.5329   C.3       1 RES1   0.0000
    32 F32     20.2247  11.2510  13.6834   F         1 RES1   0.0000
    33 F33     21.0961   9.7233  14.8648   F         1 RES1   0.0000
    34 F34     19.4808  10.8617  15.6282   F         1 RES1   0.0000
    35 N35     18.6061   8.2561  14.7139   N.2       1 RES1   0.0000
    36 N36     16.1404   1.4882  16.2239   N.2       1 RES1  -1.0000
    37 H37     17.0475   1.5101  16.6900   H         1 RES1   0.0000
    38 O38     13.9791   2.5054  15.5420   O.2       1 RES1   0.0000
    39 O39     14.9118   3.0488  17.7119   O.2       1 RES1   0.0000
@<TRIPOS>BOND
     1     1     2    1
     2     1    36    1
     3     1    38    2
     4     1    39    2
     5     2     3   ar
     6     2    10   ar
     7     3     5   ar
     8     3     4    1
     9     5     7   ar
    10     5     6    1
    11     7     8   ar
    12     7    12    1
    13     8    10   ar
    14     8     9    1
    15    10    11    1
    16    12    13    1
    17    12    35    1
    18    13    14    1
    19    13    28    2
    20    14    15   ar
    21    14    26   ar
    22    15    17   ar
    23    15    16    1
    24    17    19   ar
    25    17    18    1
    26    19    20    1
    27    19    24   ar
    28    20    21    1
    29    20    22    1
    30    20    23    1
    31    24    26   ar
    32    24    25    1
    33    26    27    1
    34    28    30    1
    35    28    29    1
    36    30    31    1
    37    30    35    2
    38    31    32    1
    39    31    33    1
    40    31    34    1
    41    36    37    1
@<TRIPOS>SUBSTRUCTURE
     1 RES1        1 GROUP             0 ****  ****    0  
@<TRIPOS>MOLECULE
LIGAND_00050
    39    41     1     0     0
SMALL
USER_CHARGES
****
Generated from the CSD

@<TRIPOS>ATOM
     1 S1      15.1896   2.7025  16.3258   S.o2      1 RES1   0.0000
     2 C2      15.9519   4.1578  15.6344   C.ar      1 RES1   0.0000
     3 C3      15.6259   5.4089  16.1297   C.ar      1 RES1   0.0000
     4 H4      14.9155   5.5047  16.9442   H         1 RES1   0.0000
     5 C5      16.2120   6.5354  15.5814   C.ar      1 RES1   0.0000
     6 H6      15.9722   7.5121  15.9872   H         1 RES1   0.0000
     7 C7      17.1055   6.4258  14.5237   C.ar      1 RES1   0.0000
     8 C8      17.4386   5.1628  14.0535   C.ar      1 RES1   0.0000
     9 H9      18.1565   5.0623  13.2464   H         1 RES1   0.0000
    10 C10     16.8631   4.0304  14.6001   C.ar      1 RES1   0.0000
    11 H11     17.1238   3.0483  14.2197   H         1 RES1   0.0000
    12 N12     17.7135   7.5671  13.9113   N.pl3     1 RES1   0.0000
    13 C13     17.5910   8.1690  12.6760   C.2       1 RES1   0.0000
    14 C14     16.7832   7.7466  11.5090   C.ar      1 RES1   0.0000
    15 C15     16.5532   6.4126  11.1881   C.ar      1 RES1   0.0000
    16 H16     16.9946   5.6286  11.7937   H         1 RES1   0.0000
    17 C17     15.7719   6.0685  10.1001   C.ar      1 RES1   0.0000
    18 H18     15.5914   5.0206   9.8851   H         1 RES1   0.0000
    19 C19     15.2161   7.0340   9.2777   C.ar      1 RES1   0.0000
    20 C20     14.3628   6.6494   8.0940   C.3       1 RES1   0.0000
    21 H21     13.8205   7.5120   7.7126   H         1 RES1   0.0000
    22 H22     14.9763   6.2507   7.2886   H         1 RES1   0.0000
    23 H23     13.6368   5.8893   8.3749   H         1 RES1   0.0000
    24 C24     15.4681   8.3617   9.5812   C.ar      1 RES1   0.0000
    25 H25     15.0521   9.1396   8.9497   H         1 RES1   0.0000
    26 C26     16.2389   8.7157  10.6739   C.ar      1 RES1   0.0000
    27 H27     16.4199   9.7647  10.8840   H         1 RES1   0.0000
    28 C28     18.3926   9.2944  12.7109   C.2       1 RES1   0.0000
    29 H29     18.5378  10.0220  11.9191   H         1 RES1   0.0000
    30 C30     18.9850   9.2940  13.9697   C.2       1 RES1   0.0000
    31 C31     19.9396  10.2761  14.5329   C.3       1 RES1   0.0000
    32 F32     20.2247  11.2510  13.6834   F         1 RES1   0.0000
    33 F33     21.0961   9.7233  14.8648   F         1 RES1   0.0000
    34 F34     19.4808  10.8617  15.6282   F         1 RES1   0.0000
    35 N35     18.6061   8.2561  14.7139   N.2       1 RES1   0.0000
    36 N36     14.8443   2.9236  17.8162   N.2       1 RES1  -1.0000
    37 H37     14.1983   3.6656  18.0854   H         1 RES1   0.0000
    38 O38     16.1749   1.6453  16.1528   O.2       1 RES1   0.0000
    39 O39     13.9923   2.4917  15.5256   O.2       1 RES1   0.0000
@<TRIPOS>BOND
     1     1     2    1
     2     1    36    1
     3     1    38    2
     4     1    39    2
     5     2     3   ar
     6     2    10   ar
     7     3     5   ar
     8     3     4    1
     9     5     7   ar
    10     5     6    1
    11     7     8   ar
    12     7    12    1
    13     8    10   ar
    14     8     9    1
    15    10    11    1
    16    12    13    1
    17    12    35    1
    18    13    14    1
    19    13    28    2
    20    14    15   ar
    21    14    26   ar
    22    15    17   ar
    23    15    16    1
    24    17    19   ar
    25    17    18    1
    26    19    20    1
    27    19    24   ar
    28    20    21    1
    29    20    22    1
    30    20    23    1
    31    24    26   ar
    32    24    25    1
    33    26    27    1
    34    28    30    1
    35    28    29    1
    36    30    31    1
    37    30    35    2
    38    31    32    1
    39    31    33    1
    40    31    34    1
    41    36    37    1
@<TRIPOS>SUBSTRUCTURE
     1 RES1        1 GROUP             0 ****  ****    0  
@<TRIPOS>MOLECULE
LIGAND_00051
    39    41     1     0     0
SMALL
USER_CHARGES
****
Generated from the CSD

@<TRIPOS>ATOM
     1 S1      20.9153   1.9909  12.8054   S.o2      1 RES1   0.0000
     2 C2      20.2338   3.6333  12.9297   C.ar      1 RES1   0.0000
     3 C3      21.0220   4.7317  12.6310   C.ar      1 RES1   0.0000
     4 H4      22.0499   4.5946  12.3119   H         1 RES1   0.0000
     5 C5      20.4912   6.0042  12.7404   C.ar      1 RES1   0.0000
     6 H6      21.1040   6.8613  12.4834   H         1 RES1   0.0000
     7 C7      19.1837   6.1921  13.1698   C.ar      1 RES1   0.0000
     8 C8      18.3999   5.0796  13.4438   C.ar      1 RES1   0.0000
     9 H9      17.3685   5.2123  13.7530   H         1 RES1   0.0000
    10 C10     18.9198   3.8032  13.3305   C.ar      1 RES1   0.0000
    11 H11     18.3013   2.9405  13.5553   H         1 RES1   0.0000
    12 N12     18.6051   7.4920  13.3214   N.pl3     1 RES1   0.0000
    13 C13     17.5910   8.1690  12.6760   C.2       1 RES1   0.0000
    14 C14     16.7832   7.7466  11.5090   C.ar      1 RES1   0.0000
    15 C15     16.4389   6.4211  11.2642   C.ar      1 RES1   0.0000
    16 H16     16.7859   5.6415  11.9334   H         1 RES1   0.0000
    17 C17     15.6623   6.0793  10.1720   C.ar      1 RES1   0.0000
    18 H18     15.3909   5.0405  10.0167   H         1 RES1   0.0000
    19 C19     15.2251   7.0355   9.2709   C.ar      1 RES1   0.0000
    20 C20     14.3761   6.6537   8.0832   C.3       1 RES1   0.0000
    21 H21     13.9291   7.5354   7.6290   H         1 RES1   0.0000
    22 H22     14.9739   6.1482   7.3274   H         1 RES1   0.0000
    23 H23     13.5737   5.9836   8.3845   H         1 RES1   0.0000
    24 C24     15.5913   8.3516   9.4996   C.ar      1 RES1   0.0000
    25 H25     15.2697   9.1210   8.8058   H         1 RES1   0.0000
    26 C26     16.3581   8.7044  10.5955   C.ar      1 RES1   0.0000
    27 H27     16.6303   9.7440  10.7459   H         1 RES1   0.0000
    28 C28     17.4466   9.3744  13.3367   C.2       1 RES1   0.0000
    29 H29     16.7351  10.1632  13.1158   H         1 RES1   0.0000
    30 C30     18.4127   9.3713  14.3379   C.2       1 RES1   0.0000
    31 C31     18.6984  10.4254  15.3380   C.3       1 RES1   0.0000
    32 F32     17.9014  11.4751  15.2105   F         1 RES1   0.0000
    33 F33     19.9363  10.8863  15.2467   F         1 RES1   0.0000
    34 F34     18.5526   9.9988  16.5830   F         1 RES1   0.0000
    35 N35     19.1383   8.2541  14.3462   N.2       1 RES1   0.0000
    36 N36     19.8141   0.9700  12.4387   N.2       1 RES1  -1.0000
    37 H37     19.2997   1.0671  11.5633   H         1 RES1   0.0000
    38 O38     21.4840   1.7210  14.1178   O.2       1 RES1   0.0000
    39 O39     21.9264   2.0837  11.7627   O.2       1 RES1   0.0000
@<TRIPOS>BOND
     1     1     2    1
     2     1    36    1
     3     1    38    2
     4     1    39    2
     5     2     3   ar
     6     2    10   ar
     7     3     5   ar
     8     3     4    1
     9     5     7   ar
    10     5     6    1
    11     7     8   ar
    12     7    12    1
    13     8    10   ar
    14     8     9    1
    15    10    11    1
    16    12    13    1
    17    12    35    1
    18    13    14    1
    19    13    28    2
    20    14    15   ar
    21    14    26   ar
    22    15    17   ar
    23    15    16    1
    24    17    19   ar
    25    17    18    1
    26    19    20    1
    27    19    24   ar
    28    20    21    1
    29    20    22    1
    30    20    23    1
    31    24    26   ar
    32    24    25    1
    33    26    27    1
    34    28    30    1
    35    28    29    1
    36    30    31    1
    37    30    35    2
    38    31    32    1
    39    31    33    1
    40    31    34    1
    41    36    37    1
@<TRIPOS>SUBSTRUCTURE
     1 RES1        1 GROUP             0 ****  ****    0  
@<TRIPOS>MOLECULE
LIGAND_00052
    39    41     1     0     0
SMALL
USER_CHARGES
****
Generated from the CSD

@<TRIPOS>ATOM
     1 S1      20.9153   1.9909  12.8054   S.o2      1 RES1   0.0000
     2 C2      20.2338   3.6333  12.9297   C.ar      1 RES1   0.0000
     3 C3      21.0220   4.7317  12.6310   C.ar      1 RES1   0.0000
     4 H4      22.0499   4.5946  12.3119   H         1 RES1   0.0000
     5 C5      20.4912   6.0042  12.7404   C.ar      1 RES1   0.0000
     6 H6      21.1040   6.8613  12.4834   H         1 RES1   0.0000
     7 C7      19.1837   6.1921  13.1698   C.ar      1 RES1   0.0000
     8 C8      18.3999   5.0796  13.4438   C.ar      1 RES1   0.0000
     9 H9      17.3685   5.2123  13.7530   H         1 RES1   0.0000
    10 C10     18.9198   3.8032  13.3305   C.ar      1 RES1   0.0000
    11 H11     18.3013   2.9405  13.5553   H         1 RES1   0.0000
    12 N12     18.6051   7.4920  13.3214   N.pl3     1 RES1   0.0000
    13 C13     17.5910   8.1690  12.6760   C.2       1 RES1   0.0000
    14 C14     16.7832   7.7466  11.5090   C.ar      1 RES1   0.0000
    15 C15     16.4389   6.4211  11.2642   C.ar      1 RES1   0.0000
    16 H16     16.7859   5.6415  11.9334   H         1 RES1   0.0000
    17 C17     15.6623   6.0793  10.1720   C.ar      1 RES1   0.0000
    18 H18     15.3909   5.0405  10.0167   H         1 RES1   0.0000
    19 C19     15.2251   7.0355   9.2709   C.ar      1 RES1   0.0000
    20 C20     14.3761   6.6537   8.0832   C.3       1 RES1   0.0000
    21 H21     13.9291   7.5354   7.6290   H         1 RES1   0.0000
    22 H22     14.9739   6.1482   7.3274   H         1 RES1   0.0000
    23 H23     13.5737   5.9836   8.3845   H         1 RES1   0.0000
    24 C24     15.5913   8.3516   9.4996   C.ar      1 RES1   0.0000
    25 H25     15.2697   9.1210   8.8058   H         1 RES1   0.0000
    26 C26     16.3581   8.7044  10.5955   C.ar      1 RES1   0.0000
    27 H27     16.6303   9.7440  10.7459   H         1 RES1   0.0000
    28 C28     17.4466   9.3744  13.3367   C.2       1 RES1   0.0000
    29 H29     16.7351  10.1632  13.1158   H         1 RES1   0.0000
    30 C30     18.4127   9.3713  14.3379   C.2       1 RES1   0.0000
    31 C31     18.6984  10.4254  15.3380   C.3       1 RES1   0.0000
    32 F32     17.9014  11.4751  15.2105   F         1 RES1   0.0000
    33 F33     19.9363  10.8863  15.2467   F         1 RES1   0.0000
    34 F34     18.5526   9.9988  16.5830   F         1 RES1   0.0000
    35 N35     19.1383   8.2541  14.3462   N.2       1 RES1   0.0000
    36 N36     22.0094   1.9357  11.7150   N.2       1 RES1  -1.0000
    37 H37     22.8420   2.5191  11.7979   H         1 RES1   0.0000
    38 O38     19.7822   1.1393  12.4744   O.2       1 RES1   0.0000
    39 O39     21.4617   1.7121  14.1252   O.2       1 RES1   0.0000
@<TRIPOS>BOND
     1     1     2    1
     2     1    36    1
     3     1    38    2
     4     1    39    2
     5     2     3   ar
     6     2    10   ar
     7     3     5   ar
     8     3     4    1
     9     5     7   ar
    10     5     6    1
    11     7     8   ar
    12     7    12    1
    13     8    10   ar
    14     8     9    1
    15    10    11    1
    16    12    13    1
    17    12    35    1
    18    13    14    1
    19    13    28    2
    20    14    15   ar
    21    14    26   ar
    22    15    17   ar
    23    15    16    1
    24    17    19   ar
    25    17    18    1
    26    19    20    1
    27    19    24   ar
    28    20    21    1
    29    20    22    1
    30    20    23    1
    31    24    26   ar
    32    24    25    1
    33    26    27    1
    34    28    30    1
    35    28    29    1
    36    30    31    1
    37    30    35    2
    38    31    32    1
    39    31    33    1
    40    31    34    1
    41    36    37    1
@<TRIPOS>SUBSTRUCTURE
     1 RES1        1 GROUP             0 ****  ****    0  
@<TRIPOS>MOLECULE
LIGAND_00053
    39    41     1     0     0
SMALL
USER_CHARGES
****
Generated from the CSD

@<TRIPOS>ATOM
     1 S1      23.0450   4.1871  10.7008   S.o2      1 RES1   0.0000
     2 C2      21.7904   5.2675  11.3611   C.ar      1 RES1   0.0000
     3 C3      21.3222   6.3262  10.6017   C.ar      1 RES1   0.0000
     4 H4      21.7098   6.4937   9.6022   H         1 RES1   0.0000
     5 C5      20.3570   7.1681  11.1238   C.ar      1 RES1   0.0000
     6 H6      19.9756   7.9825  10.5176   H         1 RES1   0.0000
     7 C7      19.8704   6.9764  12.4106   C.ar      1 RES1   0.0000
     8 C8      20.3340   5.8972  13.1505   C.ar      1 RES1   0.0000
     9 H9      19.9412   5.7203  14.1462   H         1 RES1   0.0000
    10 C10     21.2938   5.0460  12.6341   C.ar      1 RES1   0.0000
    11 H11     21.6556   4.2103  13.2239   H         1 RES1   0.0000
    12 N12     18.8915   7.8395  12.9973   N.pl3     1 RES1   0.0000
    13 C13     17.5910   8.1690  12.6760   C.2       1 RES1   0.0000
    14 C14     16.7832   7.7466  11.5090   C.ar      1 RES1   0.0000
    15 C15     16.4878   6.4156  11.2324   C.ar      1 RES1   0.0000
    16 H16     16.8751   5.6326  11.8749   H         1 RES1   0.0000
    17 C17     15.7091   6.0729  10.1419   C.ar      1 RES1   0.0000
    18 H18     15.4766   5.0287   9.9617   H         1 RES1   0.0000
    19 C19     15.2212   7.0350   9.2738   C.ar      1 RES1   0.0000
    20 C20     14.3704   6.6521   8.0878   C.3       1 RES1   0.0000
    21 H21     13.8823   7.5273   7.6643   H         1 RES1   0.0000
    22 H22     14.9762   6.1915   7.3101   H         1 RES1   0.0000
    23 H23     13.5995   5.9427   8.3814   H         1 RES1   0.0000
    24 C24     15.5387   8.3579   9.5337   C.ar      1 RES1   0.0000
    25 H25     15.1768   9.1325   8.8659   H         1 RES1   0.0000
    26 C26     16.3072   8.7112  10.6283   C.ar      1 RES1   0.0000
    27 H27     16.5405   9.7563  10.8036   H         1 RES1   0.0000
    28 C28     17.1426   9.0058  13.6805   C.2       1 RES1   0.0000
    29 H29     16.1595   9.4559  13.7702   H         1 RES1   0.0000
    30 C30     18.2194   9.1610  14.5478   C.2       1 RES1   0.0000
    31 C31     18.2850   9.9612  15.7921   C.3       1 RES1   0.0000
    32 F32     17.1458  10.5820  16.0567   F         1 RES1   0.0000
    33 F33     19.2161  10.9012  15.7398   F         1 RES1   0.0000
    34 F34     18.5614   9.2246  16.8571   F         1 RES1   0.0000
    35 N35     19.2953   8.4804  14.1556   N.2       1 RES1   0.0000
    36 N36     22.8970   2.7617  11.2800   N.2       1 RES1  -1.0000
    37 H37     22.0389   2.2333  11.1217   H         1 RES1   0.0000
    38 O38     24.3077   4.7976  11.0898   O.2       1 RES1   0.0000
    39 O39     22.8324   4.2036   9.2611   O.2       1 RES1   0.0000
@<TRIPOS>BOND
     1     1     2    1
     2     1    36    1
     3     1    38    2
     4     1    39    2
     5     2     3   ar
     6     2    10   ar
     7     3     5   ar
     8     3     4    1
     9     5     7   ar
    10     5     6    1
    11     7     8   ar
    12     7    12    1
    13     8    10   ar
    14     8     9    1
    15    10    11    1
    16    12    13    1
    17    12    35    1
    18    13    14    1
    19    13    28    2
    20    14    15   ar
    21    14    26   ar
    22    15    17   ar
    23    15    16    1
    24    17    19   ar
    25    17    18    1
    26    19    20    1
    27    19    24   ar
    28    20    21    1
    29    20    22    1
    30    20    23    1
    31    24    26   ar
    32    24    25    1
    33    26    27    1
    34    28    30    1
    35    28    29    1
    36    30    31    1
    37    30    35    2
    38    31    32    1
    39    31    33    1
    40    31    34    1
    41    36    37    1
@<TRIPOS>SUBSTRUCTURE
     1 RES1        1 GROUP             0 ****  ****    0  
@<TRIPOS>MOLECULE
LIGAND_00054
    39    41     1     0     0
SMALL
USER_CHARGES
****
Generated from the CSD

@<TRIPOS>ATOM
     1 S1      23.0450   4.1871  10.7008   S.o2      1 RES1   0.0000
     2 C2      21.7904   5.2675  11.3611   C.ar      1 RES1   0.0000
     3 C3      21.3222   6.3262  10.6017   C.ar      1 RES1   0.0000
     4 H4      21.7098   6.4937   9.6022   H         1 RES1   0.0000
     5 C5      20.3570   7.1681  11.1238   C.ar      1 RES1   0.0000
     6 H6      19.9756   7.9825  10.5176   H         1 RES1   0.0000
     7 C7      19.8704   6.9764  12.4106   C.ar      1 RES1   0.0000
     8 C8      20.3340   5.8972  13.1505   C.ar      1 RES1   0.0000
     9 H9      19.9412   5.7203  14.1462   H         1 RES1   0.0000
    10 C10     21.2938   5.0460  12.6341   C.ar      1 RES1   0.0000
    11 H11     21.6556   4.2103  13.2239   H         1 RES1   0.0000
    12 N12     18.8915   7.8395  12.9973   N.pl3     1 RES1   0.0000
    13 C13     17.5910   8.1690  12.6760   C.2       1 RES1   0.0000
    14 C14     16.7832   7.7466  11.5090   C.ar      1 RES1   0.0000
    15 C15     16.4878   6.4156  11.2324   C.ar      1 RES1   0.0000
    16 H16     16.8751   5.6326  11.8749   H         1 RES1   0.0000
    17 C17     15.7091   6.0729  10.1419   C.ar      1 RES1   0.0000
    18 H18     15.4766   5.0287   9.9617   H         1 RES1   0.0000
    19 C19     15.2212   7.0350   9.2738   C.ar      1 RES1   0.0000
    20 C20     14.3704   6.6521   8.0878   C.3       1 RES1   0.0000
    21 H21     13.8823   7.5273   7.6643   H         1 RES1   0.0000
    22 H22     14.9762   6.1915   7.3101   H         1 RES1   0.0000
    23 H23     13.5995   5.9427   8.3814   H         1 RES1   0.0000
    24 C24     15.5387   8.3579   9.5337   C.ar      1 RES1   0.0000
    25 H25     15.1768   9.1325   8.8659   H         1 RES1   0.0000
    26 C26     16.3072   8.7112  10.6283   C.ar      1 RES1   0.0000
    27 H27     16.5405   9.7563  10.8036   H         1 RES1   0.0000
    28 C28     17.1426   9.0058  13.6805   C.2       1 RES1   0.0000
    29 H29     16.1595   9.4559  13.7702   H         1 RES1   0.0000
    30 C30     18.2194   9.1610  14.5478   C.2       1 RES1   0.0000
    31 C31     18.2850   9.9612  15.7921   C.3       1 RES1   0.0000
    32 F32     17.1458  10.5820  16.0567   F         1 RES1   0.0000
    33 F33     19.2161  10.9012  15.7398   F         1 RES1   0.0000
    34 F34     18.5614   9.2246  16.8571   F         1 RES1   0.0000
    35 N35     19.2953   8.4804  14.1556   N.2       1 RES1   0.0000
    36 N36     22.9333   4.0985   9.1617   N.2       1 RES1  -1.0000
    37 H37     23.0383   4.9391   8.5935   H         1 RES1   0.0000
    38 O38     22.8008   2.8990  11.3331   O.2       1 RES1   0.0000
    39 O39     24.3069   4.7848  11.1114   O.2       1 RES1   0.0000
@<TRIPOS>BOND
     1     1     2    1
     2     1    36    1
     3     1    38    2
     4     1    39    2
     5     2     3   ar
     6     2    10   ar
     7     3     5   ar
     8     3     4    1
     9     5     7   ar
    10     5     6    1
    11     7     8   ar
    12     7    12    1
    13     8    10   ar
    14     8     9    1
    15    10    11    1
    16    12    13    1
    17    12    35    1
    18    13    14    1
    19    13    28    2
    20    14    15   ar
    21    14    26   ar
    22    15    17   ar
    23    15    16    1
    24    17    19   ar
    25    17    18    1
    26    19    20    1
    27    19    24   ar
    28    20    21    1
    29    20    22    1
    30    20    23    1
    31    24    26   ar
    32    24    25    1
    33    26    27    1
    34    28    30    1
    35    28    29    1
    36    30    31    1
    37    30    35    2
    38    31    32    1
    39    31    33    1
    40    31    34    1
    41    36    37    1
@<TRIPOS>SUBSTRUCTURE
     1 RES1        1 GROUP             0 ****  ****    0  
@<TRIPOS>MOLECULE
LIGAND_00055
    39    41     1     0     0
SMALL
USER_CHARGES
****
Generated from the CSD

@<TRIPOS>ATOM
     1 S1      22.9289   4.2707  10.3842   S.o2      1 RES1   0.0000
     2 C2      21.7469   5.3384  11.1843   C.ar      1 RES1   0.0000
     3 C3      21.3292   5.0606  12.4748   C.ar      1 RES1   0.0000
     4 H4      21.7271   4.2008  13.0035   H         1 RES1   0.0000
     5 C5      20.4032   5.8862  13.0864   C.ar      1 RES1   0.0000
     6 H6      20.0956   5.6792  14.1055   H         1 RES1   0.0000
     7 C7      19.8704   6.9764  12.4106   C.ar      1 RES1   0.0000
     8 C8      20.3163   7.2539  11.1255   C.ar      1 RES1   0.0000
     9 H9      19.9287   8.1188  10.5976   H         1 RES1   0.0000
    10 C10     21.2471   6.4383  10.5086   C.ar      1 RES1   0.0000
    11 H11     21.5828   6.6591   9.5007   H         1 RES1   0.0000
    12 N12     18.8915   7.8395  12.9973   N.pl3     1 RES1   0.0000
    13 C13     17.5910   8.1690  12.6760   C.2       1 RES1   0.0000
    14 C14     16.7832   7.7466  11.5090   C.ar      1 RES1   0.0000
    15 C15     16.4878   6.4156  11.2324   C.ar      1 RES1   0.0000
    16 H16     16.8751   5.6326  11.8749   H         1 RES1   0.0000
    17 C17     15.7091   6.0729  10.1419   C.ar      1 RES1   0.0000
    18 H18     15.4766   5.0287   9.9617   H         1 RES1   0.0000
    19 C19     15.2212   7.0350   9.2738   C.ar      1 RES1   0.0000
    20 C20     14.3704   6.6521   8.0878   C.3       1 RES1   0.0000
    21 H21     13.8823   7.5273   7.6643   H         1 RES1   0.0000
    22 H22     14.9762   6.1915   7.3101   H         1 RES1   0.0000
    23 H23     13.5995   5.9427   8.3814   H         1 RES1   0.0000
    24 C24     15.5387   8.3579   9.5337   C.ar      1 RES1   0.0000
    25 H25     15.1768   9.1325   8.8659   H         1 RES1   0.0000
    26 C26     16.3072   8.7112  10.6283   C.ar      1 RES1   0.0000
    27 H27     16.5405   9.7563  10.8036   H         1 RES1   0.0000
    28 C28     17.1426   9.0058  13.6805   C.2       1 RES1   0.0000
    29 H29     16.1595   9.4559  13.7702   H         1 RES1   0.0000
    30 C30     18.2194   9.1610  14.5478   C.2       1 RES1   0.0000
    31 C31     18.2850   9.9612  15.7921   C.3       1 RES1   0.0000
    32 F32     17.1458  10.5820  16.0567   F         1 RES1   0.0000
    33 F33     19.2161  10.9012  15.7398   F         1 RES1   0.0000
    34 F34     18.5614   9.2246  16.8571   F         1 RES1   0.0000
    35 N35     19.2953   8.4804  14.1556   N.2       1 RES1   0.0000
    36 N36     23.7897   5.0677   9.3777   N.2       1 RES1  -1.0000
    37 H37     24.3694   5.8414   9.7029   H         1 RES1   0.0000
    38 O38     22.1261   3.2547   9.7195   O.2       1 RES1   0.0000
    39 O39     23.7367   3.7295  11.4671   O.2       1 RES1   0.0000
@<TRIPOS>BOND
     1     1     2    1
     2     1    36    1
     3     1    38    2
     4     1    39    2
     5     2     3   ar
     6     2    10   ar
     7     3     5   ar
     8     3     4    1
     9     5     7   ar
    10     5     6    1
    11     7     8   ar
    12     7    12    1
    13     8    10   ar
    14     8     9    1
    15    10    11    1
    16    12    13    1
    17    12    35    1
    18    13    14    1
    19    13    28    2
    20    14    15   ar
    21    14    26   ar
    22    15    17   ar
    23    15    16    1
    24    17    19   ar
    25    17    18    1
    26    19    20    1
    27    19    24   ar
    28    20    21    1
    29    20    22    1
    30    20    23    1
    31    24    26   ar
    32    24    25    1
    33    26    27    1
    34    28    30    1
    35    28    29    1
    36    30    31    1
    37    30    35    2
    38    31    32    1
    39    31    33    1
    40    31    34    1
    41    36    37    1
@<TRIPOS>SUBSTRUCTURE
     1 RES1        1 GROUP             0 ****  ****    0  
@<TRIPOS>MOLECULE
LIGAND_00056
    39    41     1     0     0
SMALL
USER_CHARGES
****
Generated from the CSD

@<TRIPOS>ATOM
     1 S1      22.9289   4.2707  10.3842   S.o2      1 RES1   0.0000
     2 C2      21.7469   5.3384  11.1843   C.ar      1 RES1   0.0000
     3 C3      21.3292   5.0606  12.4748   C.ar      1 RES1   0.0000
     4 H4      21.7271   4.2008  13.0035   H         1 RES1   0.0000
     5 C5      20.4032   5.8862  13.0864   C.ar      1 RES1   0.0000
     6 H6      20.0956   5.6792  14.1055   H         1 RES1   0.0000
     7 C7      19.8704   6.9764  12.4106   C.ar      1 RES1   0.0000
     8 C8      20.3163   7.2539  11.1255   C.ar      1 RES1   0.0000
     9 H9      19.9287   8.1188  10.5976   H         1 RES1   0.0000
    10 C10     21.2471   6.4383  10.5086   C.ar      1 RES1   0.0000
    11 H11     21.5828   6.6591   9.5007   H         1 RES1   0.0000
    12 N12     18.8915   7.8395  12.9973   N.pl3     1 RES1   0.0000
    13 C13     17.5910   8.1690  12.6760   C.2       1 RES1   0.0000
    14 C14     16.7832   7.7466  11.5090   C.ar      1 RES1   0.0000
    15 C15     16.4878   6.4156  11.2324   C.ar      1 RES1   0.0000
    16 H16     16.8751   5.6326  11.8749   H         1 RES1   0.0000
    17 C17     15.7091   6.0729  10.1419   C.ar      1 RES1   0.0000
    18 H18     15.4766   5.0287   9.9617   H         1 RES1   0.0000
    19 C19     15.2212   7.0350   9.2738   C.ar      1 RES1   0.0000
    20 C20     14.3704   6.6521   8.0878   C.3       1 RES1   0.0000
    21 H21     13.8823   7.5273   7.6643   H         1 RES1   0.0000
    22 H22     14.9762   6.1915   7.3101   H         1 RES1   0.0000
    23 H23     13.5995   5.9427   8.3814   H         1 RES1   0.0000
    24 C24     15.5387   8.3579   9.5337   C.ar      1 RES1   0.0000
    25 H25     15.1768   9.1325   8.8659   H         1 RES1   0.0000
    26 C26     16.3072   8.7112  10.6283   C.ar      1 RES1   0.0000
    27 H27     16.5405   9.7563  10.8036   H         1 RES1   0.0000
    28 C28     17.1426   9.0058  13.6805   C.2       1 RES1   0.0000
    29 H29     16.1595   9.4559  13.7702   H         1 RES1   0.0000
    30 C30     18.2194   9.1610  14.5478   C.2       1 RES1   0.0000
    31 C31     18.2850   9.9612  15.7921   C.3       1 RES1   0.0000
    32 F32     17.1458  10.5820  16.0567   F         1 RES1   0.0000
    33 F33     19.2161  10.9012  15.7398   F         1 RES1   0.0000
    34 F34     18.5614   9.2246  16.8571   F         1 RES1   0.0000
    35 N35     19.2953   8.4804  14.1556   N.2       1 RES1   0.0000
    36 N36     23.8727   3.6256  11.4245   N.2       1 RES1  -1.0000
    37 H37     23.4911   3.0289  12.1585   H         1 RES1   0.0000
    38 O38     23.6527   5.1359   9.4644   O.2       1 RES1   0.0000
    39 O39     22.1245   3.2696   9.6993   O.2       1 RES1   0.0000
@<TRIPOS>BOND
     1     1     2    1
     2     1    36    1
     3     1    38    2
     4     1    39    2
     5     2     3   ar
     6     2    10   ar
     7     3     5   ar
     8     3     4    1
     9     5     7   ar
    10     5     6    1
    11     7     8   ar
    12     7    12    1
    13     8    10   ar
    14     8     9    1
    15    10    11    1
    16    12    13    1
    17    12    35    1
    18    13    14    1
    19    13    28    2
    20    14    15   ar
    21    14    26   ar
    22    15    17   ar
    23    15    16    1
    24    17    19   ar
    25    17    18    1
    26    19    20    1
    27    19    24   ar
    28    20    21    1
    29    20    22    1
    30    20    23    1
    31    24    26   ar
    32    24    25    1
    33    26    27    1
    34    28    30    1
    35    28    29    1
    36    30    31    1
    37    30    35    2
    38    31    32    1
    39    31    33    1
    40    31    34    1
    41    36    37    1
@<TRIPOS>SUBSTRUCTURE
     1 RES1        1 GROUP             0 ****  ****    0  
@<TRIPOS>MOLECULE
LIGAND_00057
    39    41     1     0     0
SMALL
USER_CHARGES
****
Generated from the CSD

@<TRIPOS>ATOM
     1 S1      22.5653  10.7535   8.4612   S.o2      1 RES1   0.0000
     2 C2      21.4183  10.2099   9.7126   C.ar      1 RES1   0.0000
     3 C3      20.8759  11.1271  10.5966   C.ar      1 RES1   0.0000
     4 H4      21.1395  12.1770  10.5230   H         1 RES1   0.0000
     5 C5      19.9952  10.6976  11.5729   C.ar      1 RES1   0.0000
     6 H6      19.5542  11.4220  12.2489   H         1 RES1   0.0000
     7 C7      19.6684   9.3528  11.6904   C.ar      1 RES1   0.0000
     8 C8      20.2035   8.4494  10.7822   C.ar      1 RES1   0.0000
     9 H9      19.9339   7.4004  10.8460   H         1 RES1   0.0000
    10 C10     21.0792   8.8706   9.7985   C.ar      1 RES1   0.0000
    11 H11     21.4985   8.1550   9.0988   H         1 RES1   0.0000
    12 N12     18.7825   8.8639  12.7021   N.pl3     1 RES1   0.0000
    13 C13     17.5910   8.1690  12.6760   C.2       1 RES1   0.0000
    14 C14     16.7832   7.7466  11.5090   C.ar      1 RES1   0.0000
    15 C15     16.4878   6.4156  11.2324   C.ar      1 RES1   0.0000
    16 H16     16.8751   5.6326  11.8749   H         1 RES1   0.0000
    17 C17     15.7091   6.0729  10.1419   C.ar      1 RES1   0.0000
    18 H18     15.4766   5.0287   9.9617   H         1 RES1   0.0000
    19 C19     15.2212   7.0350   9.2738   C.ar      1 RES1   0.0000
    20 C20     14.3704   6.6521   8.0878   C.3       1 RES1   0.0000
    21 H21     13.8823   7.5273   7.6643   H         1 RES1   0.0000
    22 H22     14.9762   6.1915   7.3101   H         1 RES1   0.0000
    23 H23     13.5995   5.9427   8.3814   H         1 RES1   0.0000
    24 C24     15.5387   8.3579   9.5337   C.ar      1 RES1   0.0000
    25 H25     15.1768   9.1325   8.8659   H         1 RES1   0.0000
    26 C26     16.3072   8.7112  10.6283   C.ar      1 RES1   0.0000
    27 H27     16.5405   9.7563  10.8036   H         1 RES1   0.0000
    28 C28     17.2581   7.9188  13.9940   C.2       1 RES1   0.0000
    29 H29     16.3895   7.3825  14.3614   H         1 RES1   0.0000
    30 C30     18.2635   8.5092  14.7532   C.2       1 RES1   0.0000
    31 C31     18.3970   8.5438  16.2276   C.3       1 RES1   0.0000
    32 F32     17.4048   7.9180  16.8416   F         1 RES1   0.0000
    33 F33     18.4085   9.7788  16.7050   F         1 RES1   0.0000
    34 F34     19.5138   7.9722  16.6512   F         1 RES1   0.0000
    35 N35     19.1920   9.1004  14.0028   N.2       1 RES1   0.0000
    36 N36     22.4685   9.8566   7.2062   N.2       1 RES1  -1.0000
    37 H37     21.5896   9.7910   6.6926   H         1 RES1   0.0000
    38 O38     23.8754  10.6616   9.0887   O.2       1 RES1   0.0000
    39 O39     22.1769  12.1254   8.1688   O.2       1 RES1   0.0000
@<TRIPOS>BOND
     1     1     2    1
     2     1    36    1
     3     1    38    2
     4     1    39    2
     5     2     3   ar
     6     2    10   ar
     7     3     5   ar
     8     3     4    1
     9     5     7   ar
    10     5     6    1
    11     7     8   ar
    12     7    12    1
    13     8    10   ar
    14     8     9    1
    15    10    11    1
    16    12    13    1
    17    12    35    1
    18    13    14    1
    19    13    28    2
    20    14    15   ar
    21    14    26   ar
    22    15    17   ar
    23    15    16    1
    24    17    19   ar
    25    17    18    1
    26    19    20    1
    27    19    24   ar
    28    20    21    1
    29    20    22    1
    30    20    23    1
    31    24    26   ar
    32    24    25    1
    33    26    27    1
    34    28    30    1
    35    28    29    1
    36    30    31    1
    37    30    35    2
    38    31    32    1
    39    31    33    1
    40    31    34    1
    41    36    37    1
@<TRIPOS>SUBSTRUCTURE
     1 RES1        1 GROUP             0 ****  ****    0  
@<TRIPOS>MOLECULE
LIGAND_00058
    39    41     1     0     0
SMALL
USER_CHARGES
****
Generated from the CSD

@<TRIPOS>ATOM
     1 S1      22.5653  10.7535   8.4612   S.o2      1 RES1   0.0000
     2 C2      21.4183  10.2099   9.7126   C.ar      1 RES1   0.0000
     3 C3      20.8759  11.1271  10.5966   C.ar      1 RES1   0.0000
     4 H4      21.1395  12.1770  10.5230   H         1 RES1   0.0000
     5 C5      19.9952  10.6976  11.5729   C.ar      1 RES1   0.0000
     6 H6      19.5542  11.4220  12.2489   H         1 RES1   0.0000
     7 C7      19.6684   9.3528  11.6904   C.ar      1 RES1   0.0000
     8 C8      20.2035   8.4494  10.7822   C.ar      1 RES1   0.0000
     9 H9      19.9339   7.4004  10.8460   H         1 RES1   0.0000
    10 C10     21.0792   8.8706   9.7985   C.ar      1 RES1   0.0000
    11 H11     21.4985   8.1550   9.0988   H         1 RES1   0.0000
    12 N12     18.7825   8.8639  12.7021   N.pl3     1 RES1   0.0000
    13 C13     17.5910   8.1690  12.6760   C.2       1 RES1   0.0000
    14 C14     16.7832   7.7466  11.5090   C.ar      1 RES1   0.0000
    15 C15     16.4878   6.4156  11.2324   C.ar      1 RES1   0.0000
    16 H16     16.8751   5.6326  11.8749   H         1 RES1   0.0000
    17 C17     15.7091   6.0729  10.1419   C.ar      1 RES1   0.0000
    18 H18     15.4766   5.0287   9.9617   H         1 RES1   0.0000
    19 C19     15.2212   7.0350   9.2738   C.ar      1 RES1   0.0000
    20 C20     14.3704   6.6521   8.0878   C.3       1 RES1   0.0000
    21 H21     13.8823   7.5273   7.6643   H         1 RES1   0.0000
    22 H22     14.9762   6.1915   7.3101   H         1 RES1   0.0000
    23 H23     13.5995   5.9427   8.3814   H         1 RES1   0.0000
    24 C24     15.5387   8.3579   9.5337   C.ar      1 RES1   0.0000
    25 H25     15.1768   9.1325   8.8659   H         1 RES1   0.0000
    26 C26     16.3072   8.7112  10.6283   C.ar      1 RES1   0.0000
    27 H27     16.5405   9.7563  10.8036   H         1 RES1   0.0000
    28 C28     17.2581   7.9188  13.9940   C.2       1 RES1   0.0000
    29 H29     16.3895   7.3825  14.3614   H         1 RES1   0.0000
    30 C30     18.2635   8.5092  14.7532   C.2       1 RES1   0.0000
    31 C31     18.3970   8.5438  16.2276   C.3       1 RES1   0.0000
    32 F32     17.4048   7.9180  16.8416   F         1 RES1   0.0000
    33 F33     18.4085   9.7788  16.7050   F         1 RES1   0.0000
    34 F34     19.5138   7.9722  16.6512   F         1 RES1   0.0000
    35 N35     19.1920   9.1004  14.0028   N.2       1 RES1   0.0000
    36 N36     22.2632  12.2098   8.0403   N.2       1 RES1  -1.0000
    37 H37     22.3099  12.9602   8.7297   H         1 RES1   0.0000
    38 O38     22.3817   9.8246   7.3558   O.2       1 RES1   0.0000
    39 O39     23.8771  10.6377   9.0810   O.2       1 RES1   0.0000
@<TRIPOS>BOND
     1     1     2    1
     2     1    36    1
     3     1    38    2
     4     1    39    2
     5     2     3   ar
     6     2    10   ar
     7     3     5   ar
     8     3     4    1
     9     5     7   ar
    10     5     6    1
    11     7     8   ar
    12     7    12    1
    13     8    10   ar
    14     8     9    1
    15    10    11    1
    16    12    13    1
    17    12    35    1
    18    13    14    1
    19    13    28    2
    20    14    15   ar
    21    14    26   ar
    22    15    17   ar
    23    15    16    1
    24    17    19   ar
    25    17    18    1
    26    19    20    1
    27    19    24   ar
    28    20    21    1
    29    20    22    1
    30    20    23    1
    31    24    26   ar
    32    24    25    1
    33    26    27    1
    34    28    30    1
    35    28    29    1
    36    30    31    1
    37    30    35    2
    38    31    32    1
    39    31    33    1
    40    31    34    1
    41    36    37    1
@<TRIPOS>SUBSTRUCTURE
     1 RES1        1 GROUP             0 ****  ****    0  
@<TRIPOS>MOLECULE
LIGAND_00059
    39    41     1     0     0
SMALL
USER_CHARGES
****
Generated from the CSD

@<TRIPOS>ATOM
     1 S1      22.4123  11.0650   8.4778   S.o2      1 RES1   0.0000
     2 C2      21.3543  10.3918   9.7445   C.ar      1 RES1   0.0000
     3 C3      21.0950   9.0322   9.7761   C.ar      1 RES1   0.0000
     4 H4      21.5421   8.3745   9.0379   H         1 RES1   0.0000
     5 C5      20.2640   8.5170  10.7545   C.ar      1 RES1   0.0000
     6 H6      20.0815   7.4486  10.7905   H         1 RES1   0.0000
     7 C7      19.6684   9.3528  11.6904   C.ar      1 RES1   0.0000
     8 C8      19.9564  10.7104  11.6586   C.ar      1 RES1   0.0000
     9 H9      19.5196  11.3696  12.4013   H         1 RES1   0.0000
    10 C10     20.7916  11.2335  10.6885   C.ar      1 RES1   0.0000
    11 H11     21.0036  12.2974  10.6672   H         1 RES1   0.0000
    12 N12     18.7825   8.8639  12.7021   N.pl3     1 RES1   0.0000
    13 C13     17.5910   8.1690  12.6760   C.2       1 RES1   0.0000
    14 C14     16.7832   7.7466  11.5090   C.ar      1 RES1   0.0000
    15 C15     16.4878   6.4156  11.2324   C.ar      1 RES1   0.0000
    16 H16     16.8751   5.6326  11.8749   H         1 RES1   0.0000
    17 C17     15.7091   6.0729  10.1419   C.ar      1 RES1   0.0000
    18 H18     15.4766   5.0287   9.9617   H         1 RES1   0.0000
    19 C19     15.2212   7.0350   9.2738   C.ar      1 RES1   0.0000
    20 C20     14.3704   6.6521   8.0878   C.3       1 RES1   0.0000
    21 H21     13.8823   7.5273   7.6643   H         1 RES1   0.0000
    22 H22     14.9762   6.1915   7.3101   H         1 RES1   0.0000
    23 H23     13.5995   5.9427   8.3814   H         1 RES1   0.0000
    24 C24     15.5387   8.3579   9.5337   C.ar      1 RES1   0.0000
    25 H25     15.1768   9.1325   8.8659   H         1 RES1   0.0000
    26 C26     16.3072   8.7112  10.6283   C.ar      1 RES1   0.0000
    27 H27     16.5405   9.7563  10.8036   H         1 RES1   0.0000
    28 C28     17.2581   7.9188  13.9940   C.2       1 RES1   0.0000
    29 H29     16.3895   7.3825  14.3614   H         1 RES1   0.0000
    30 C30     18.2635   8.5092  14.7532   C.2       1 RES1   0.0000
    31 C31     18.3970   8.5438  16.2276   C.3       1 RES1   0.0000
    32 F32     17.4048   7.9180  16.8416   F         1 RES1   0.0000
    33 F33     18.4085   9.7788  16.7050   F         1 RES1   0.0000
    34 F34     19.5138   7.9722  16.6512   F         1 RES1   0.0000
    35 N35     19.1920   9.1004  14.0028   N.2       1 RES1   0.0000
    36 N36     23.1542  12.3180   8.9962   N.2       1 RES1  -1.0000
    37 H37     23.7812  12.2445   9.7974   H         1 RES1   0.0000
    38 O38     21.5184  11.3866   7.3750   O.2       1 RES1   0.0000
    39 O39     23.3394   9.9905   8.1551   O.2       1 RES1   0.0000
@<TRIPOS>BOND
     1     1     2    1
     2     1    36    1
     3     1    38    2
     4     1    39    2
     5     2     3   ar
     6     2    10   ar
     7     3     5   ar
     8     3     4    1
     9     5     7   ar
    10     5     6    1
    11     7     8   ar
    12     7    12    1
    13     8    10   ar
    14     8     9    1
    15    10    11    1
    16    12    13    1
    17    12    35    1
    18    13    14    1
    19    13    28    2
    20    14    15   ar
    21    14    26   ar
    22    15    17   ar
    23    15    16    1
    24    17    19   ar
    25    17    18    1
    26    19    20    1
    27    19    24   ar
    28    20    21    1
    29    20    22    1
    30    20    23    1
    31    24    26   ar
    32    24    25    1
    33    26    27    1
    34    28    30    1
    35    28    29    1
    36    30    31    1
    37    30    35    2
    38    31    32    1
    39    31    33    1
    40    31    34    1
    41    36    37    1
@<TRIPOS>SUBSTRUCTURE
     1 RES1        1 GROUP             0 ****  ****    0  
@<TRIPOS>MOLECULE
LIGAND_00060
    39    41     1     0     0
SMALL
USER_CHARGES
****
Generated from the CSD

@<TRIPOS>ATOM
     1 S1      22.4123  11.0650   8.4778   S.o2      1 RES1   0.0000
     2 C2      21.3543  10.3918   9.7445   C.ar      1 RES1   0.0000
     3 C3      21.0950   9.0322   9.7761   C.ar      1 RES1   0.0000
     4 H4      21.5421   8.3745   9.0379   H         1 RES1   0.0000
     5 C5      20.2640   8.5170  10.7545   C.ar      1 RES1   0.0000
     6 H6      20.0815   7.4486  10.7905   H         1 RES1   0.0000
     7 C7      19.6684   9.3528  11.6904   C.ar      1 RES1   0.0000
     8 C8      19.9564  10.7104  11.6586   C.ar      1 RES1   0.0000
     9 H9      19.5196  11.3696  12.4013   H         1 RES1   0.0000
    10 C10     20.7916  11.2335  10.6885   C.ar      1 RES1   0.0000
    11 H11     21.0036  12.2974  10.6672   H         1 RES1   0.0000
    12 N12     18.7825   8.8639  12.7021   N.pl3     1 RES1   0.0000
    13 C13     17.5910   8.1690  12.6760   C.2       1 RES1   0.0000
    14 C14     16.7832   7.7466  11.5090   C.ar      1 RES1   0.0000
    15 C15     16.4878   6.4156  11.2324   C.ar      1 RES1   0.0000
    16 H16     16.8751   5.6326  11.8749   H         1 RES1   0.0000
    17 C17     15.7091   6.0729  10.1419   C.ar      1 RES1   0.0000
    18 H18     15.4766   5.0287   9.9617   H         1 RES1   0.0000
    19 C19     15.2212   7.0350   9.2738   C.ar      1 RES1   0.0000
    20 C20     14.3704   6.6521   8.0878   C.3       1 RES1   0.0000
    21 H21     13.8823   7.5273   7.6643   H         1 RES1   0.0000
    22 H22     14.9762   6.1915   7.3101   H         1 RES1   0.0000
    23 H23     13.5995   5.9427   8.3814   H         1 RES1   0.0000
    24 C24     15.5387   8.3579   9.5337   C.ar      1 RES1   0.0000
    25 H25     15.1768   9.1325   8.8659   H         1 RES1   0.0000
    26 C26     16.3072   8.7112  10.6283   C.ar      1 RES1   0.0000
    27 H27     16.5405   9.7563  10.8036   H         1 RES1   0.0000
    28 C28     17.2581   7.9188  13.9940   C.2       1 RES1   0.0000
    29 H29     16.3895   7.3825  14.3614   H         1 RES1   0.0000
    30 C30     18.2635   8.5092  14.7532   C.2       1 RES1   0.0000
    31 C31     18.3970   8.5438  16.2276   C.3       1 RES1   0.0000
    32 F32     17.4048   7.9180  16.8416   F         1 RES1   0.0000
    33 F33     18.4085   9.7788  16.7050   F         1 RES1   0.0000
    34 F34     19.5138   7.9722  16.6512   F         1 RES1   0.0000
    35 N35     19.1920   9.1004  14.0028   N.2       1 RES1   0.0000
    36 N36     23.4675  10.0244   8.0388   N.2       1 RES1  -1.0000
    37 H37     23.1705   9.1359   7.6352   H         1 RES1   0.0000
    38 O38     23.0300  12.2334   9.0876   O.2       1 RES1   0.0000
    39 O39     21.5146  11.4094   7.3851   O.2       1 RES1   0.0000
@<TRIPOS>BOND
     1     1     2    1
     2     1    36    1
     3     1    38    2
     4     1    39    2
     5     2     3   ar
     6     2    10   ar
     7     3     5   ar
     8     3     4    1
     9     5     7   ar
    10     5     6    1
    11     7     8   ar
    12     7    12    1
    13     8    10   ar
    14     8     9    1
    15    10    11    1
    16    12    13    1
    17    12    35    1
    18    13    14    1
    19    13    28    2
    20    14    15   ar
    21    14    26   ar
    22    15    17   ar
    23    15    16    1
    24    17    19   ar
    25    17    18    1
    26    19    20    1
    27    19    24   ar
    28    20    21    1
    29    20    22    1
    30    20    23    1
    31    24    26   ar
    32    24    25    1
    33    26    27    1
    34    28    30    1
    35    28    29    1
    36    30    31    1
    37    30    35    2
    38    31    32    1
    39    31    33    1
    40    31    34    1
    41    36    37    1
@<TRIPOS>SUBSTRUCTURE
     1 RES1        1 GROUP             0 ****  ****    0  
@<TRIPOS>MOLECULE
LIGAND_00061
    39    41     1     0     0
SMALL
USER_CHARGES
****
Generated from the CSD

@<TRIPOS>ATOM
     1 S1      22.9809   4.1266  10.6828   S.o2      1 RES1   0.0000
     2 C2      21.7536   5.2375  11.3437   C.ar      1 RES1   0.0000
     3 C3      21.7349   6.5625  10.9426   C.ar      1 RES1   0.0000
     4 H4      22.4589   6.9236  10.2196   H         1 RES1   0.0000
     5 C5      20.7874   7.4226  11.4676   C.ar      1 RES1   0.0000
     6 H6      20.7608   8.4541  11.1338   H         1 RES1   0.0000
     7 C7      19.8704   6.9764  12.4106   C.ar      1 RES1   0.0000
     8 C8      19.8884   5.6399  12.7854   C.ar      1 RES1   0.0000
     9 H9      19.1594   5.2728  13.5001   H         1 RES1   0.0000
    10 C10     20.8274   4.7710  12.2606   C.ar      1 RES1   0.0000
    11 H11     20.8383   3.7301  12.5667   H         1 RES1   0.0000
    12 N12     18.8915   7.8395  12.9973   N.pl3     1 RES1   0.0000
    13 C13     17.5910   8.1690  12.6760   C.2       1 RES1   0.0000
    14 C14     16.7832   7.7466  11.5090   C.ar      1 RES1   0.0000
    15 C15     16.4878   6.4156  11.2324   C.ar      1 RES1   0.0000
    16 H16     16.8751   5.6326  11.8749   H         1 RES1   0.0000
    17 C17     15.7091   6.0729  10.1419   C.ar      1 RES1   0.0000
    18 H18     15.4766   5.0287   9.9617   H         1 RES1   0.0000
    19 C19     15.2212   7.0350   9.2738   C.ar      1 RES1   0.0000
    20 C20     14.3704   6.6521   8.0878   C.3       1 RES1   0.0000
    21 H21     13.8823   7.5273   7.6643   H         1 RES1   0.0000
    22 H22     14.9762   6.1915   7.3101   H         1 RES1   0.0000
    23 H23     13.5995   5.9427   8.3814   H         1 RES1   0.0000
    24 C24     15.5387   8.3579   9.5337   C.ar      1 RES1   0.0000
    25 H25     15.1768   9.1325   8.8659   H         1 RES1   0.0000
    26 C26     16.3072   8.7112  10.6283   C.ar      1 RES1   0.0000
    27 H27     16.5405   9.7563  10.8036   H         1 RES1   0.0000
    28 C28     17.1426   9.0058  13.6805   C.2       1 RES1   0.0000
    29 H29     16.1595   9.4559  13.7702   H         1 RES1   0.0000
    30 C30     18.2194   9.1610  14.5478   C.2       1 RES1   0.0000
    31 C31     18.2850   9.9612  15.7921   C.3       1 RES1   0.0000
    32 F32     17.1458  10.5820  16.0567   F         1 RES1   0.0000
    33 F33     19.2161  10.9012  15.7398   F         1 RES1   0.0000
    34 F34     18.5614   9.2246  16.8571   F         1 RES1   0.0000
    35 N35     19.2953   8.4804  14.1556   N.2       1 RES1   0.0000
    36 N36     22.3079   2.9522   9.9366   N.2       1 RES1  -1.0000
    37 H37     21.7120   3.1353   9.1292   H         1 RES1   0.0000
    38 O38     23.7333   3.6678  11.8412   O.2       1 RES1   0.0000
    39 O39     23.7791   4.9448   9.7819   O.2       1 RES1   0.0000
@<TRIPOS>BOND
     1     1     2    1
     2     1    36    1
     3     1    38    2
     4     1    39    2
     5     2     3   ar
     6     2    10   ar
     7     3     5   ar
     8     3     4    1
     9     5     7   ar
    10     5     6    1
    11     7     8   ar
    12     7    12    1
    13     8    10   ar
    14     8     9    1
    15    10    11    1
    16    12    13    1
    17    12    35    1
    18    13    14    1
    19    13    28    2
    20    14    15   ar
    21    14    26   ar
    22    15    17   ar
    23    15    16    1
    24    17    19   ar
    25    17    18    1
    26    19    20    1
    27    19    24   ar
    28    20    21    1
    29    20    22    1
    30    20    23    1
    31    24    26   ar
    32    24    25    1
    33    26    27    1
    34    28    30    1
    35    28    29    1
    36    30    31    1
    37    30    35    2
    38    31    32    1
    39    31    33    1
    40    31    34    1
    41    36    37    1
@<TRIPOS>SUBSTRUCTURE
     1 RES1        1 GROUP             0 ****  ****    0  
@<TRIPOS>MOLECULE
LIGAND_00062
    39    41     1     0     0
SMALL
USER_CHARGES
****
Generated from the CSD

@<TRIPOS>ATOM
     1 S1      22.9809   4.1266  10.6828   S.o2      1 RES1   0.0000
     2 C2      21.7536   5.2375  11.3437   C.ar      1 RES1   0.0000
     3 C3      21.7349   6.5625  10.9426   C.ar      1 RES1   0.0000
     4 H4      22.4589   6.9236  10.2196   H         1 RES1   0.0000
     5 C5      20.7874   7.4226  11.4676   C.ar      1 RES1   0.0000
     6 H6      20.7608   8.4541  11.1338   H         1 RES1   0.0000
     7 C7      19.8704   6.9764  12.4106   C.ar      1 RES1   0.0000
     8 C8      19.8884   5.6399  12.7854   C.ar      1 RES1   0.0000
     9 H9      19.1594   5.2728  13.5001   H         1 RES1   0.0000
    10 C10     20.8274   4.7710  12.2606   C.ar      1 RES1   0.0000
    11 H11     20.8383   3.7301  12.5667   H         1 RES1   0.0000
    12 N12     18.8915   7.8395  12.9973   N.pl3     1 RES1   0.0000
    13 C13     17.5910   8.1690  12.6760   C.2       1 RES1   0.0000
    14 C14     16.7832   7.7466  11.5090   C.ar      1 RES1   0.0000
    15 C15     16.4878   6.4156  11.2324   C.ar      1 RES1   0.0000
    16 H16     16.8751   5.6326  11.8749   H         1 RES1   0.0000
    17 C17     15.7091   6.0729  10.1419   C.ar      1 RES1   0.0000
    18 H18     15.4766   5.0287   9.9617   H         1 RES1   0.0000
    19 C19     15.2212   7.0350   9.2738   C.ar      1 RES1   0.0000
    20 C20     14.3704   6.6521   8.0878   C.3       1 RES1   0.0000
    21 H21     13.8823   7.5273   7.6643   H         1 RES1   0.0000
    22 H22     14.9762   6.1915   7.3101   H         1 RES1   0.0000
    23 H23     13.5995   5.9427   8.3814   H         1 RES1   0.0000
    24 C24     15.5387   8.3579   9.5337   C.ar      1 RES1   0.0000
    25 H25     15.1768   9.1325   8.8659   H         1 RES1   0.0000
    26 C26     16.3072   8.7112  10.6283   C.ar      1 RES1   0.0000
    27 H27     16.5405   9.7563  10.8036   H         1 RES1   0.0000
    28 C28     17.1426   9.0058  13.6805   C.2       1 RES1   0.0000
    29 H29     16.1595   9.4559  13.7702   H         1 RES1   0.0000
    30 C30     18.2194   9.1610  14.5478   C.2       1 RES1   0.0000
    31 C31     18.2850   9.9612  15.7921   C.3       1 RES1   0.0000
    32 F32     17.1458  10.5820  16.0567   F         1 RES1   0.0000
    33 F33     19.2161  10.9012  15.7398   F         1 RES1   0.0000
    34 F34     18.5614   9.2246  16.8571   F         1 RES1   0.0000
    35 N35     19.2953   8.4804  14.1556   N.2       1 RES1   0.0000
    36 N36     22.8577   4.0306   9.1450   N.2       1 RES1  -1.0000
    37 H37     22.9769   4.8651   8.5707   H         1 RES1   0.0000
    38 O38     22.7135   2.8481  11.3250   O.2       1 RES1   0.0000
    39 O39     24.2577   4.7002  11.0818   O.2       1 RES1   0.0000
@<TRIPOS>BOND
     1     1     2    1
     2     1    36    1
     3     1    38    2
     4     1    39    2
     5     2     3   ar
     6     2    10   ar
     7     3     5   ar
     8     3     4    1
     9     5     7   ar
    10     5     6    1
    11     7     8   ar
    12     7    12    1
    13     8    10   ar
    14     8     9    1
    15    10    11    1
    16    12    13    1
    17    12    35    1
    18    13    14    1
    19    13    28    2
    20    14    15   ar
    21    14    26   ar
    22    15    17   ar
    23    15    16    1
    24    17    19   ar
    25    17    18    1
    26    19    20    1
    27    19    24   ar
    28    20    21    1
    29    20    22    1
    30    20    23    1
    31    24    26   ar
    32    24    25    1
    33    26    27    1
    34    28    30    1
    35    28    29    1
    36    30    31    1
    37    30    35    2
    38    31    32    1
    39    31    33    1
    40    31    34    1
    41    36    37    1
@<TRIPOS>SUBSTRUCTURE
     1 RES1        1 GROUP             0 ****  ****    0  
@<TRIPOS>MOLECULE
LIGAND_00063
    39    41     1     0     0
SMALL
USER_CHARGES
****
Generated from the CSD

@<TRIPOS>ATOM
     1 S1      22.9930   4.3311  10.4022   S.o2      1 RES1   0.0000
     2 C2      21.7838   5.3683  11.2017   C.ar      1 RES1   0.0000
     3 C3      20.9166   4.8243  12.1339   C.ar      1 RES1   0.0000
     4 H4      20.9780   3.7708  12.3861   H         1 RES1   0.0000
     5 C5      19.9727   5.6316  12.7426   C.ar      1 RES1   0.0000
     6 H6      19.3104   5.2075  13.4893   H         1 RES1   0.0000
     7 C7      19.8704   6.9764  12.4106   C.ar      1 RES1   0.0000
     8 C8      20.7619   7.5112  11.4905   C.ar      1 RES1   0.0000
     9 H9      20.7105   8.5663  11.2437   H         1 RES1   0.0000
    10 C10     21.7135   6.7133  10.8821   C.ar      1 RES1   0.0000
    11 H11     22.4001   7.1393  10.1580   H         1 RES1   0.0000
    12 N12     18.8915   7.8395  12.9973   N.pl3     1 RES1   0.0000
    13 C13     17.5910   8.1690  12.6760   C.2       1 RES1   0.0000
    14 C14     16.7832   7.7466  11.5090   C.ar      1 RES1   0.0000
    15 C15     16.4878   6.4156  11.2324   C.ar      1 RES1   0.0000
    16 H16     16.8751   5.6326  11.8749   H         1 RES1   0.0000
    17 C17     15.7091   6.0729  10.1419   C.ar      1 RES1   0.0000
    18 H18     15.4766   5.0287   9.9617   H         1 RES1   0.0000
    19 C19     15.2212   7.0350   9.2738   C.ar      1 RES1   0.0000
    20 C20     14.3704   6.6521   8.0878   C.3       1 RES1   0.0000
    21 H21     13.8823   7.5273   7.6643   H         1 RES1   0.0000
    22 H22     14.9762   6.1915   7.3101   H         1 RES1   0.0000
    23 H23     13.5995   5.9427   8.3814   H         1 RES1   0.0000
    24 C24     15.5387   8.3579   9.5337   C.ar      1 RES1   0.0000
    25 H25     15.1768   9.1325   8.8659   H         1 RES1   0.0000
    26 C26     16.3072   8.7112  10.6283   C.ar      1 RES1   0.0000
    27 H27     16.5405   9.7563  10.8036   H         1 RES1   0.0000
    28 C28     17.1426   9.0058  13.6805   C.2       1 RES1   0.0000
    29 H29     16.1595   9.4559  13.7702   H         1 RES1   0.0000
    30 C30     18.2194   9.1610  14.5478   C.2       1 RES1   0.0000
    31 C31     18.2850   9.9612  15.7921   C.3       1 RES1   0.0000
    32 F32     17.1458  10.5820  16.0567   F         1 RES1   0.0000
    33 F33     19.2161  10.9012  15.7398   F         1 RES1   0.0000
    34 F34     18.5614   9.2246  16.8571   F         1 RES1   0.0000
    35 N35     19.2953   8.4804  14.1556   N.2       1 RES1   0.0000
    36 N36     24.4239   4.8374  10.6941   N.2       1 RES1  -1.0000
    37 H37     24.7639   4.8799  11.6549   H         1 RES1   0.0000
    38 O38     22.6736   4.4082   8.9842   O.2       1 RES1   0.0000
    39 O39     22.7723   3.0038  10.9570   O.2       1 RES1   0.0000
@<TRIPOS>BOND
     1     1     2    1
     2     1    36    1
     3     1    38    2
     4     1    39    2
     5     2     3   ar
     6     2    10   ar
     7     3     5   ar
     8     3     4    1
     9     5     7   ar
    10     5     6    1
    11     7     8   ar
    12     7    12    1
    13     8    10   ar
    14     8     9    1
    15    10    11    1
    16    12    13    1
    17    12    35    1
    18    13    14    1
    19    13    28    2
    20    14    15   ar
    21    14    26   ar
    22    15    17   ar
    23    15    16    1
    24    17    19   ar
    25    17    18    1
    26    19    20    1
    27    19    24   ar
    28    20    21    1
    29    20    22    1
    30    20    23    1
    31    24    26   ar
    32    24    25    1
    33    26    27    1
    34    28    30    1
    35    28    29    1
    36    30    31    1
    37    30    35    2
    38    31    32    1
    39    31    33    1
    40    31    34    1
    41    36    37    1
@<TRIPOS>SUBSTRUCTURE
     1 RES1        1 GROUP             0 ****  ****    0  
@<TRIPOS>MOLECULE
LIGAND_00064
    39    41     1     0     0
SMALL
USER_CHARGES
****
Generated from the CSD

@<TRIPOS>ATOM
     1 S1      22.9930   4.3311  10.4022   S.o2      1 RES1   0.0000
     2 C2      21.7838   5.3683  11.2017   C.ar      1 RES1   0.0000
     3 C3      20.9166   4.8243  12.1339   C.ar      1 RES1   0.0000
     4 H4      20.9780   3.7708  12.3861   H         1 RES1   0.0000
     5 C5      19.9727   5.6316  12.7426   C.ar      1 RES1   0.0000
     6 H6      19.3104   5.2075  13.4893   H         1 RES1   0.0000
     7 C7      19.8704   6.9764  12.4106   C.ar      1 RES1   0.0000
     8 C8      20.7619   7.5112  11.4905   C.ar      1 RES1   0.0000
     9 H9      20.7105   8.5663  11.2437   H         1 RES1   0.0000
    10 C10     21.7135   6.7133  10.8821   C.ar      1 RES1   0.0000
    11 H11     22.4001   7.1393  10.1580   H         1 RES1   0.0000
    12 N12     18.8915   7.8395  12.9973   N.pl3     1 RES1   0.0000
    13 C13     17.5910   8.1690  12.6760   C.2       1 RES1   0.0000
    14 C14     16.7832   7.7466  11.5090   C.ar      1 RES1   0.0000
    15 C15     16.4878   6.4156  11.2324   C.ar      1 RES1   0.0000
    16 H16     16.8751   5.6326  11.8749   H         1 RES1   0.0000
    17 C17     15.7091   6.0729  10.1419   C.ar      1 RES1   0.0000
    18 H18     15.4766   5.0287   9.9617   H         1 RES1   0.0000
    19 C19     15.2212   7.0350   9.2738   C.ar      1 RES1   0.0000
    20 C20     14.3704   6.6521   8.0878   C.3       1 RES1   0.0000
    21 H21     13.8823   7.5273   7.6643   H         1 RES1   0.0000
    22 H22     14.9762   6.1915   7.3101   H         1 RES1   0.0000
    23 H23     13.5995   5.9427   8.3814   H         1 RES1   0.0000
    24 C24     15.5387   8.3579   9.5337   C.ar      1 RES1   0.0000
    25 H25     15.1768   9.1325   8.8659   H         1 RES1   0.0000
    26 C26     16.3072   8.7112  10.6283   C.ar      1 RES1   0.0000
    27 H27     16.5405   9.7563  10.8036   H         1 RES1   0.0000
    28 C28     17.1426   9.0058  13.6805   C.2       1 RES1   0.0000
    29 H29     16.1595   9.4559  13.7702   H         1 RES1   0.0000
    30 C30     18.2194   9.1610  14.5478   C.2       1 RES1   0.0000
    31 C31     18.2850   9.9612  15.7921   C.3       1 RES1   0.0000
    32 F32     17.1458  10.5820  16.0567   F         1 RES1   0.0000
    33 F33     19.2161  10.9012  15.7398   F         1 RES1   0.0000
    34 F34     18.5614   9.2246  16.8571   F         1 RES1   0.0000
    35 N35     19.2953   8.4804  14.1556   N.2       1 RES1   0.0000
    36 N36     23.9430   3.6983  11.4444   N.2       1 RES1  -1.0000
    37 H37     23.5689   3.0884  12.1715   H         1 RES1   0.0000
    38 O38     23.7048   5.2178   9.4935   O.2       1 RES1   0.0000
    39 O39     22.2142   3.3186   9.7047   O.2       1 RES1   0.0000
@<TRIPOS>BOND
     1     1     2    1
     2     1    36    1
     3     1    38    2
     4     1    39    2
     5     2     3   ar
     6     2    10   ar
     7     3     5   ar
     8     3     4    1
     9     5     7   ar
    10     5     6    1
    11     7     8   ar
    12     7    12    1
    13     8    10   ar
    14     8     9    1
    15    10    11    1
    16    12    13    1
    17    12    35    1
    18    13    14    1
    19    13    28    2
    20    14    15   ar
    21    14    26   ar
    22    15    17   ar
    23    15    16    1
    24    17    19   ar
    25    17    18    1
    26    19    20    1
    27    19    24   ar
    28    20    21    1
    29    20    22    1
    30    20    23    1
    31    24    26   ar
    32    24    25    1
    33    26    27    1
    34    28    30    1
    35    28    29    1
    36    30    31    1
    37    30    35    2
    38    31    32    1
    39    31    33    1
    40    31    34    1
    41    36    37    1
@<TRIPOS>SUBSTRUCTURE
     1 RES1        1 GROUP             0 ****  ****    0  
@<TRIPOS>MOLECULE
LIGAND_00065
    39    41     1     0     0
SMALL
USER_CHARGES
****
Generated from the CSD

@<TRIPOS>ATOM
     1 S1      22.6116  10.7989   8.5236   S.o2      1 RES1   0.0000
     2 C2      21.4488  10.2285   9.7484   C.ar      1 RES1   0.0000
     3 C3      20.4502  11.0751  10.1987   C.ar      1 RES1   0.0000
     4 H4      20.3675  12.0810   9.8006   H         1 RES1   0.0000
     5 C5      19.5579  10.6307  11.1576   C.ar      1 RES1   0.0000
     6 H6      18.7626  11.2883  11.4911   H         1 RES1   0.0000
     7 C7      19.6684   9.3528  11.6904   C.ar      1 RES1   0.0000
     8 C8      20.6614   8.5089  11.2120   C.ar      1 RES1   0.0000
     9 H9      20.7406   7.4988  11.6000   H         1 RES1   0.0000
    10 C10     21.5537   8.9419  10.2484   C.ar      1 RES1   0.0000
    11 H11     22.3315   8.2772   9.8874   H         1 RES1   0.0000
    12 N12     18.7825   8.8639  12.7021   N.pl3     1 RES1   0.0000
    13 C13     17.5910   8.1690  12.6760   C.2       1 RES1   0.0000
    14 C14     16.7832   7.7466  11.5090   C.ar      1 RES1   0.0000
    15 C15     16.4878   6.4156  11.2324   C.ar      1 RES1   0.0000
    16 H16     16.8751   5.6326  11.8749   H         1 RES1   0.0000
    17 C17     15.7091   6.0729  10.1419   C.ar      1 RES1   0.0000
    18 H18     15.4766   5.0287   9.9617   H         1 RES1   0.0000
    19 C19     15.2212   7.0350   9.2738   C.ar      1 RES1   0.0000
    20 C20     14.3704   6.6521   8.0878   C.3       1 RES1   0.0000
    21 H21     13.8823   7.5273   7.6643   H         1 RES1   0.0000
    22 H22     14.9762   6.1915   7.3101   H         1 RES1   0.0000
    23 H23     13.5995   5.9427   8.3814   H         1 RES1   0.0000
    24 C24     15.5387   8.3579   9.5337   C.ar      1 RES1   0.0000
    25 H25     15.1768   9.1325   8.8659   H         1 RES1   0.0000
    26 C26     16.3072   8.7112  10.6283   C.ar      1 RES1   0.0000
    27 H27     16.5405   9.7563  10.8036   H         1 RES1   0.0000
    28 C28     17.2581   7.9188  13.9940   C.2       1 RES1   0.0000
    29 H29     16.3895   7.3825  14.3614   H         1 RES1   0.0000
    30 C30     18.2635   8.5092  14.7532   C.2       1 RES1   0.0000
    31 C31     18.3970   8.5438  16.2276   C.3       1 RES1   0.0000
    32 F32     17.4048   7.9180  16.8416   F         1 RES1   0.0000
    33 F33     18.4085   9.7788  16.7050   F         1 RES1   0.0000
    34 F34     19.5138   7.9722  16.6512   F         1 RES1   0.0000
    35 N35     19.1920   9.1004  14.0028   N.2       1 RES1   0.0000
    36 N36     22.5404   9.9208   7.2536   N.2       1 RES1  -1.0000
    37 H37     21.6700   9.8575   6.7254   H         1 RES1   0.0000
    38 O38     23.9123  10.7058   9.1701   O.2       1 RES1   0.0000
    39 O39     22.2184  12.1725   8.2463   O.2       1 RES1   0.0000
@<TRIPOS>BOND
     1     1     2    1
     2     1    36    1
     3     1    38    2
     4     1    39    2
     5     2     3   ar
     6     2    10   ar
     7     3     5   ar
     8     3     4    1
     9     5     7   ar
    10     5     6    1
    11     7     8   ar
    12     7    12    1
    13     8    10   ar
    14     8     9    1
    15    10    11    1
    16    12    13    1
    17    12    35    1
    18    13    14    1
    19    13    28    2
    20    14    15   ar
    21    14    26   ar
    22    15    17   ar
    23    15    16    1
    24    17    19   ar
    25    17    18    1
    26    19    20    1
    27    19    24   ar
    28    20    21    1
    29    20    22    1
    30    20    23    1
    31    24    26   ar
    32    24    25    1
    33    26    27    1
    34    28    30    1
    35    28    29    1
    36    30    31    1
    37    30    35    2
    38    31    32    1
    39    31    33    1
    40    31    34    1
    41    36    37    1
@<TRIPOS>SUBSTRUCTURE
     1 RES1        1 GROUP             0 ****  ****    0  
@<TRIPOS>MOLECULE
LIGAND_00066
    39    41     1     0     0
SMALL
USER_CHARGES
****
Generated from the CSD

@<TRIPOS>ATOM
     1 S1      22.6116  10.7989   8.5236   S.o2      1 RES1   0.0000
     2 C2      21.4488  10.2285   9.7484   C.ar      1 RES1   0.0000
     3 C3      20.4502  11.0751  10.1987   C.ar      1 RES1   0.0000
     4 H4      20.3675  12.0810   9.8006   H         1 RES1   0.0000
     5 C5      19.5579  10.6307  11.1576   C.ar      1 RES1   0.0000
     6 H6      18.7626  11.2883  11.4911   H         1 RES1   0.0000
     7 C7      19.6684   9.3528  11.6904   C.ar      1 RES1   0.0000
     8 C8      20.6614   8.5089  11.2120   C.ar      1 RES1   0.0000
     9 H9      20.7406   7.4988  11.6000   H         1 RES1   0.0000
    10 C10     21.5537   8.9419  10.2484   C.ar      1 RES1   0.0000
    11 H11     22.3315   8.2772   9.8874   H         1 RES1   0.0000
    12 N12     18.7825   8.8639  12.7021   N.pl3     1 RES1   0.0000
    13 C13     17.5910   8.1690  12.6760   C.2       1 RES1   0.0000
    14 C14     16.7832   7.7466  11.5090   C.ar      1 RES1   0.0000
    15 C15     16.4878   6.4156  11.2324   C.ar      1 RES1   0.0000
    16 H16     16.8751   5.6326  11.8749   H         1 RES1   0.0000
    17 C17     15.7091   6.0729  10.1419   C.ar      1 RES1   0.0000
    18 H18     15.4766   5.0287   9.9617   H         1 RES1   0.0000
    19 C19     15.2212   7.0350   9.2738   C.ar      1 RES1   0.0000
    20 C20     14.3704   6.6521   8.0878   C.3       1 RES1   0.0000
    21 H21     13.8823   7.5273   7.6643   H         1 RES1   0.0000
    22 H22     14.9762   6.1915   7.3101   H         1 RES1   0.0000
    23 H23     13.5995   5.9427   8.3814   H         1 RES1   0.0000
    24 C24     15.5387   8.3579   9.5337   C.ar      1 RES1   0.0000
    25 H25     15.1768   9.1325   8.8659   H         1 RES1   0.0000
    26 C26     16.3072   8.7112  10.6283   C.ar      1 RES1   0.0000
    27 H27     16.5405   9.7563  10.8036   H         1 RES1   0.0000
    28 C28     17.2581   7.9188  13.9940   C.2       1 RES1   0.0000
    29 H29     16.3895   7.3825  14.3614   H         1 RES1   0.0000
    30 C30     18.2635   8.5092  14.7532   C.2       1 RES1   0.0000
    31 C31     18.3970   8.5438  16.2276   C.3       1 RES1   0.0000
    32 F32     17.4048   7.9180  16.8416   F         1 RES1   0.0000
    33 F33     18.4085   9.7788  16.7050   F         1 RES1   0.0000
    34 F34     19.5138   7.9722  16.6512   F         1 RES1   0.0000
    35 N35     19.1920   9.1004  14.0028   N.2       1 RES1   0.0000
    36 N36     21.8793  11.2069   7.2250   N.2       1 RES1  -1.0000
    37 H37     21.1867  11.9555   7.2436   H         1 RES1   0.0000
    38 O38     23.5079   9.6731   8.3051   O.2       1 RES1   0.0000
    39 O39     23.2774  11.9361   9.1415   O.2       1 RES1   0.0000
@<TRIPOS>BOND
     1     1     2    1
     2     1    36    1
     3     1    38    2
     4     1    39    2
     5     2     3   ar
     6     2    10   ar
     7     3     5   ar
     8     3     4    1
     9     5     7   ar
    10     5     6    1
    11     7     8   ar
    12     7    12    1
    13     8    10   ar
    14     8     9    1
    15    10    11    1
    16    12    13    1
    17    12    35    1
    18    13    14    1
    19    13    28    2
    20    14    15   ar
    21    14    26   ar
    22    15    17   ar
    23    15    16    1
    24    17    19   ar
    25    17    18    1
    26    19    20    1
    27    19    24   ar
    28    20    21    1
    29    20    22    1
    30    20    23    1
    31    24    26   ar
    32    24    25    1
    33    26    27    1
    34    28    30    1
    35    28    29    1
    36    30    31    1
    37    30    35    2
    38    31    32    1
    39    31    33    1
    40    31    34    1
    41    36    37    1
@<TRIPOS>SUBSTRUCTURE
     1 RES1        1 GROUP             0 ****  ****    0  
@<TRIPOS>MOLECULE
LIGAND_00067
    39    41     1     0     0
SMALL
USER_CHARGES
****
Generated from the CSD

@<TRIPOS>ATOM
     1 S1      22.3661  11.0197   8.4154   S.o2      1 RES1   0.0000
     2 C2      21.3238  10.3732   9.7088   C.ar      1 RES1   0.0000
     3 C3      21.5207   9.0842  10.1740   C.ar      1 RES1   0.0000
     4 H4      22.3141   8.4705   9.7604   H         1 RES1   0.0000
     5 C5      20.7013   8.5839  11.1698   C.ar      1 RES1   0.0000
     6 H6      20.8731   7.5822  11.5482   H         1 RES1   0.0000
     7 C7      19.6684   9.3528  11.6904   C.ar      1 RES1   0.0000
     8 C8      19.4984  10.6510  11.2288   C.ar      1 RES1   0.0000
     9 H9      18.7129  11.2712  11.6474   H         1 RES1   0.0000
    10 C10     20.3171  11.1621  10.2385   C.ar      1 RES1   0.0000
    11 H11     20.1705  12.1752   9.8787   H         1 RES1   0.0000
    12 N12     18.7825   8.8639  12.7021   N.pl3     1 RES1   0.0000
    13 C13     17.5910   8.1690  12.6760   C.2       1 RES1   0.0000
    14 C14     16.7832   7.7466  11.5090   C.ar      1 RES1   0.0000
    15 C15     16.4878   6.4156  11.2324   C.ar      1 RES1   0.0000
    16 H16     16.8751   5.6326  11.8749   H         1 RES1   0.0000
    17 C17     15.7091   6.0729  10.1419   C.ar      1 RES1   0.0000
    18 H18     15.4766   5.0287   9.9617   H         1 RES1   0.0000
    19 C19     15.2212   7.0350   9.2738   C.ar      1 RES1   0.0000
    20 C20     14.3704   6.6521   8.0878   C.3       1 RES1   0.0000
    21 H21     13.8823   7.5273   7.6643   H         1 RES1   0.0000
    22 H22     14.9762   6.1915   7.3101   H         1 RES1   0.0000
    23 H23     13.5995   5.9427   8.3814   H         1 RES1   0.0000
    24 C24     15.5387   8.3579   9.5337   C.ar      1 RES1   0.0000
    25 H25     15.1768   9.1325   8.8659   H         1 RES1   0.0000
    26 C26     16.3072   8.7112  10.6283   C.ar      1 RES1   0.0000
    27 H27     16.5405   9.7563  10.8036   H         1 RES1   0.0000
    28 C28     17.2581   7.9188  13.9940   C.2       1 RES1   0.0000
    29 H29     16.3895   7.3825  14.3614   H         1 RES1   0.0000
    30 C30     18.2635   8.5092  14.7532   C.2       1 RES1   0.0000
    31 C31     18.3970   8.5438  16.2276   C.3       1 RES1   0.0000
    32 F32     17.4048   7.9180  16.8416   F         1 RES1   0.0000
    33 F33     18.4085   9.7788  16.7050   F         1 RES1   0.0000
    34 F34     19.5138   7.9722  16.6512   F         1 RES1   0.0000
    35 N35     19.1920   9.1004  14.0028   N.2       1 RES1   0.0000
    36 N36     23.1232  12.2763   8.9022   N.2       1 RES1  -1.0000
    37 H37     23.7619  12.2118   9.6949   H         1 RES1   0.0000
    38 O38     21.4573  11.3290   7.3214   O.2       1 RES1   0.0000
    39 O39     23.2818   9.9345   8.0959   O.2       1 RES1   0.0000
@<TRIPOS>BOND
     1     1     2    1
     2     1    36    1
     3     1    38    2
     4     1    39    2
     5     2     3   ar
     6     2    10   ar
     7     3     5   ar
     8     3     4    1
     9     5     7   ar
    10     5     6    1
    11     7     8   ar
    12     7    12    1
    13     8    10   ar
    14     8     9    1
    15    10    11    1
    16    12    13    1
    17    12    35    1
    18    13    14    1
    19    13    28    2
    20    14    15   ar
    21    14    26   ar
    22    15    17   ar
    23    15    16    1
    24    17    19   ar
    25    17    18    1
    26    19    20    1
    27    19    24   ar
    28    20    21    1
    29    20    22    1
    30    20    23    1
    31    24    26   ar
    32    24    25    1
    33    26    27    1
    34    28    30    1
    35    28    29    1
    36    30    31    1
    37    30    35    2
    38    31    32    1
    39    31    33    1
    40    31    34    1
    41    36    37    1
@<TRIPOS>SUBSTRUCTURE
     1 RES1        1 GROUP             0 ****  ****    0  
@<TRIPOS>MOLECULE
LIGAND_00068
    39    41     1     0     0
SMALL
USER_CHARGES
****
Generated from the CSD

@<TRIPOS>ATOM
     1 S1      22.3661  11.0197   8.4154   S.o2      1 RES1   0.0000
     2 C2      21.3238  10.3732   9.7088   C.ar      1 RES1   0.0000
     3 C3      21.5207   9.0842  10.1740   C.ar      1 RES1   0.0000
     4 H4      22.3141   8.4705   9.7604   H         1 RES1   0.0000
     5 C5      20.7013   8.5839  11.1698   C.ar      1 RES1   0.0000
     6 H6      20.8731   7.5822  11.5482   H         1 RES1   0.0000
     7 C7      19.6684   9.3528  11.6904   C.ar      1 RES1   0.0000
     8 C8      19.4984  10.6510  11.2288   C.ar      1 RES1   0.0000
     9 H9      18.7129  11.2712  11.6474   H         1 RES1   0.0000
    10 C10     20.3171  11.1621  10.2385   C.ar      1 RES1   0.0000
    11 H11     20.1705  12.1752   9.8787   H         1 RES1   0.0000
    12 N12     18.7825   8.8639  12.7021   N.pl3     1 RES1   0.0000
    13 C13     17.5910   8.1690  12.6760   C.2       1 RES1   0.0000
    14 C14     16.7832   7.7466  11.5090   C.ar      1 RES1   0.0000
    15 C15     16.4878   6.4156  11.2324   C.ar      1 RES1   0.0000
    16 H16     16.8751   5.6326  11.8749   H         1 RES1   0.0000
    17 C17     15.7091   6.0729  10.1419   C.ar      1 RES1   0.0000
    18 H18     15.4766   5.0287   9.9617   H         1 RES1   0.0000
    19 C19     15.2212   7.0350   9.2738   C.ar      1 RES1   0.0000
    20 C20     14.3704   6.6521   8.0878   C.3       1 RES1   0.0000
    21 H21     13.8823   7.5273   7.6643   H         1 RES1   0.0000
    22 H22     14.9762   6.1915   7.3101   H         1 RES1   0.0000
    23 H23     13.5995   5.9427   8.3814   H         1 RES1   0.0000
    24 C24     15.5387   8.3579   9.5337   C.ar      1 RES1   0.0000
    25 H25     15.1768   9.1325   8.8659   H         1 RES1   0.0000
    26 C26     16.3072   8.7112  10.6283   C.ar      1 RES1   0.0000
    27 H27     16.5405   9.7563  10.8036   H         1 RES1   0.0000
    28 C28     17.2581   7.9188  13.9940   C.2       1 RES1   0.0000
    29 H29     16.3895   7.3825  14.3614   H         1 RES1   0.0000
    30 C30     18.2635   8.5092  14.7532   C.2       1 RES1   0.0000
    31 C31     18.3970   8.5438  16.2276   C.3       1 RES1   0.0000
    32 F32     17.4048   7.9180  16.8416   F         1 RES1   0.0000
    33 F33     18.4085   9.7788  16.7050   F         1 RES1   0.0000
    34 F34     19.5138   7.9722  16.6512   F         1 RES1   0.0000
    35 N35     19.1920   9.1004  14.0028   N.2       1 RES1   0.0000
    36 N36     23.8466  11.0246   8.8596   N.2       1 RES1  -1.0000
    37 H37     24.3086  10.1487   9.1043   H         1 RES1   0.0000
    38 O38     21.8720  12.3674   8.1746   O.2       1 RES1   0.0000
    39 O39     22.1510  10.1312   7.2829   O.2       1 RES1   0.0000
@<TRIPOS>BOND
     1     1     2    1
     2     1    36    1
     3     1    38    2
     4     1    39    2
     5     2     3   ar
     6     2    10   ar
     7     3     5   ar
     8     3     4    1
     9     5     7   ar
    10     5     6    1
    11     7     8   ar
    12     7    12    1
    13     8    10   ar
    14     8     9    1
    15    10    11    1
    16    12    13    1
    17    12    35    1
    18    13    14    1
    19    13    28    2
    20    14    15   ar
    21    14    26   ar
    22    15    17   ar
    23    15    16    1
    24    17    19   ar
    25    17    18    1
    26    19    20    1
    27    19    24   ar
    28    20    21    1
    29    20    22    1
    30    20    23    1
    31    24    26   ar
    32    24    25    1
    33    26    27    1
    34    28    30    1
    35    28    29    1
    36    30    31    1
    37    30    35    2
    38    31    32    1
    39    31    33    1
    40    31    34    1
    41    36    37    1
@<TRIPOS>SUBSTRUCTURE
     1 RES1        1 GROUP             0 ****  ****    0  
@<TRIPOS>MOLECULE
LIGAND_00069
    39    41     1     0     0
SMALL
USER_CHARGES
****
Generated from the CSD

@<TRIPOS>ATOM
     1 S1      18.1517   1.5628  15.0277   S.o2      1 RES1   0.0000
     2 C2      18.1441   3.2916  14.5933   C.ar      1 RES1   0.0000
     3 C3      18.7551   3.7118  13.4242   C.ar      1 RES1   0.0000
     4 H4      19.2295   2.9904  12.7670   H         1 RES1   0.0000
     5 C5      18.7561   5.0560  13.0981   C.ar      1 RES1   0.0000
     6 H6      19.2152   5.3791  12.1702   H         1 RES1   0.0000
     7 C7      18.1717   5.9906  13.9432   C.ar      1 RES1   0.0000
     8 C8      17.5439   5.5503  15.1004   C.ar      1 RES1   0.0000
     9 H9      17.0593   6.2674  15.7546   H         1 RES1   0.0000
    10 C10     17.5317   4.2076  15.4311   C.ar      1 RES1   0.0000
    11 H11     17.0456   3.8748  16.3423   H         1 RES1   0.0000
    12 N12     18.1739   7.3923  13.6559   N.pl3     1 RES1   0.0000
    13 C13     17.5910   8.1690  12.6760   C.2       1 RES1   0.0000
    14 C14     16.7832   7.7466  11.5090   C.ar      1 RES1   0.0000
    15 C15     16.4107   6.4256  11.2821   C.ar      1 RES1   0.0000
    16 H16     16.7344   5.6490  11.9664   H         1 RES1   0.0000
    17 C17     15.6353   6.0842  10.1889   C.ar      1 RES1   0.0000
    18 H18     15.3415   5.0495  10.0476   H         1 RES1   0.0000
    19 C19     15.2274   7.0356   9.2693   C.ar      1 RES1   0.0000
    20 C20     14.3795   6.6545   8.0806   C.3       1 RES1   0.0000
    21 H21     13.9564   7.5388   7.6088   H         1 RES1   0.0000
    22 H22     14.9716   6.1236   7.3379   H         1 RES1   0.0000
    23 H23     13.5596   6.0076   8.3856   H         1 RES1   0.0000
    24 C24     15.6217   8.3465   9.4803   C.ar      1 RES1   0.0000
    25 H25     15.3234   9.1120   8.7719   H         1 RES1   0.0000
    26 C26     16.3875   8.6992  10.5770   C.ar      1 RES1   0.0000
    27 H27     16.6822   9.7346  10.7134   H         1 RES1   0.0000
    28 C28     17.9041   9.4800  12.9818   C.2       1 RES1   0.0000
    29 H29     17.6056  10.3704  12.4383   H         1 RES1   0.0000
    30 C30     18.6929   9.4200  14.1263   C.2       1 RES1   0.0000
    31 C31     19.3040  10.5407  14.8771   C.3       1 RES1   0.0000
    32 F32     19.0284  11.7199  14.3418   F         1 RES1   0.0000
    33 F33     20.6244  10.4552  14.9264   F         1 RES1   0.0000
    34 F34     18.8891  10.5981  16.1332   F         1 RES1   0.0000
    35 N35     18.8861   8.1720  14.5505   N.2       1 RES1   0.0000
    36 N36     16.7078   1.0234  15.1434   N.2       1 RES1  -1.0000
    37 H37     16.0872   1.0495  14.3342   H         1 RES1   0.0000
    38 O38     18.8535   1.4997  16.3013   O.2       1 RES1   0.0000
    39 O39     18.8812   0.9101  13.9506   O.2       1 RES1   0.0000
@<TRIPOS>BOND
     1     1     2    1
     2     1    36    1
     3     1    38    2
     4     1    39    2
     5     2     3   ar
     6     2    10   ar
     7     3     5   ar
     8     3     4    1
     9     5     7   ar
    10     5     6    1
    11     7     8   ar
    12     7    12    1
    13     8    10   ar
    14     8     9    1
    15    10    11    1
    16    12    13    1
    17    12    35    1
    18    13    14    1
    19    13    28    2
    20    14    15   ar
    21    14    26   ar
    22    15    17   ar
    23    15    16    1
    24    17    19   ar
    25    17    18    1
    26    19    20    1
    27    19    24   ar
    28    20    21    1
    29    20    22    1
    30    20    23    1
    31    24    26   ar
    32    24    25    1
    33    26    27    1
    34    28    30    1
    35    28    29    1
    36    30    31    1
    37    30    35    2
    38    31    32    1
    39    31    33    1
    40    31    34    1
    41    36    37    1
@<TRIPOS>SUBSTRUCTURE
     1 RES1        1 GROUP             0 ****  ****    0  
@<TRIPOS>MOLECULE
LIGAND_00070
    39    41     1     0     0
SMALL
USER_CHARGES
****
Generated from the CSD

@<TRIPOS>ATOM
     1 S1      18.1517   1.5628  15.0277   S.o2      1 RES1   0.0000
     2 C2      18.1441   3.2916  14.5933   C.ar      1 RES1   0.0000
     3 C3      18.7551   3.7118  13.4242   C.ar      1 RES1   0.0000
     4 H4      19.2295   2.9904  12.7670   H         1 RES1   0.0000
     5 C5      18.7561   5.0560  13.0981   C.ar      1 RES1   0.0000
     6 H6      19.2152   5.3791  12.1702   H         1 RES1   0.0000
     7 C7      18.1717   5.9906  13.9432   C.ar      1 RES1   0.0000
     8 C8      17.5439   5.5503  15.1004   C.ar      1 RES1   0.0000
     9 H9      17.0593   6.2674  15.7546   H         1 RES1   0.0000
    10 C10     17.5317   4.2076  15.4311   C.ar      1 RES1   0.0000
    11 H11     17.0456   3.8748  16.3423   H         1 RES1   0.0000
    12 N12     18.1739   7.3923  13.6559   N.pl3     1 RES1   0.0000
    13 C13     17.5910   8.1690  12.6760   C.2       1 RES1   0.0000
    14 C14     16.7832   7.7466  11.5090   C.ar      1 RES1   0.0000
    15 C15     16.4107   6.4256  11.2821   C.ar      1 RES1   0.0000
    16 H16     16.7344   5.6490  11.9664   H         1 RES1   0.0000
    17 C17     15.6353   6.0842  10.1889   C.ar      1 RES1   0.0000
    18 H18     15.3415   5.0495  10.0476   H         1 RES1   0.0000
    19 C19     15.2274   7.0356   9.2693   C.ar      1 RES1   0.0000
    20 C20     14.3795   6.6545   8.0806   C.3       1 RES1   0.0000
    21 H21     13.9564   7.5388   7.6088   H         1 RES1   0.0000
    22 H22     14.9716   6.1236   7.3379   H         1 RES1   0.0000
    23 H23     13.5596   6.0076   8.3856   H         1 RES1   0.0000
    24 C24     15.6217   8.3465   9.4803   C.ar      1 RES1   0.0000
    25 H25     15.3234   9.1120   8.7719   H         1 RES1   0.0000
    26 C26     16.3875   8.6992  10.5770   C.ar      1 RES1   0.0000
    27 H27     16.6822   9.7346  10.7134   H         1 RES1   0.0000
    28 C28     17.9041   9.4800  12.9818   C.2       1 RES1   0.0000
    29 H29     17.6056  10.3704  12.4383   H         1 RES1   0.0000
    30 C30     18.6929   9.4200  14.1263   C.2       1 RES1   0.0000
    31 C31     19.3040  10.5407  14.8771   C.3       1 RES1   0.0000
    32 F32     19.0284  11.7199  14.3418   F         1 RES1   0.0000
    33 F33     20.6244  10.4552  14.9264   F         1 RES1   0.0000
    34 F34     18.8891  10.5981  16.1332   F         1 RES1   0.0000
    35 N35     18.8861   8.1720  14.5505   N.2       1 RES1   0.0000
    36 N36     17.4475   0.7236  13.9372   N.2       1 RES1  -1.0000
    37 H37     17.8108   0.7178  12.9841   H         1 RES1   0.0000
    38 O38     17.4470   1.4930  16.2993   O.2       1 RES1   0.0000
    39 O39     19.5596   1.2131  15.1450   O.2       1 RES1   0.0000
@<TRIPOS>BOND
     1     1     2    1
     2     1    36    1
     3     1    38    2
     4     1    39    2
     5     2     3   ar
     6     2    10   ar
     7     3     5   ar
     8     3     4    1
     9     5     7   ar
    10     5     6    1
    11     7     8   ar
    12     7    12    1
    13     8    10   ar
    14     8     9    1
    15    10    11    1
    16    12    13    1
    17    12    35    1
    18    13    14    1
    19    13    28    2
    20    14    15   ar
    21    14    26   ar
    22    15    17   ar
    23    15    16    1
    24    17    19   ar
    25    17    18    1
    26    19    20    1
    27    19    24   ar
    28    20    21    1
    29    20    22    1
    30    20    23    1
    31    24    26   ar
    32    24    25    1
    33    26    27    1
    34    28    30    1
    35    28    29    1
    36    30    31    1
    37    30    35    2
    38    31    32    1
    39    31    33    1
    40    31    34    1
    41    36    37    1
@<TRIPOS>SUBSTRUCTURE
     1 RES1        1 GROUP             0 ****  ****    0  
@<TRIPOS>MOLECULE
LIGAND_00071
    39    41     1     0     0
SMALL
USER_CHARGES
****
Generated from the CSD

@<TRIPOS>ATOM
     1 S1      18.1779   1.4932  14.6883   S.o2      1 RES1   0.0000
     2 C2      18.1908   3.2534  14.4075   C.ar      1 RES1   0.0000
     3 C3      17.5790   4.1013  15.3150   C.ar      1 RES1   0.0000
     4 H4      17.1008   3.6978  16.2015   H         1 RES1   0.0000
     5 C5      17.5822   5.4654  15.0860   C.ar      1 RES1   0.0000
     6 H6      17.1225   6.1286  15.8105   H         1 RES1   0.0000
     7 C7      18.1717   5.9906  13.9432   C.ar      1 RES1   0.0000
     8 C8      18.8001   5.1289  13.0545   C.ar      1 RES1   0.0000
     9 H9      19.2885   5.5296  12.1726   H         1 RES1   0.0000
    10 C10     18.8082   3.7644  13.2788   C.ar      1 RES1   0.0000
    11 H11     19.2948   3.0987  12.5736   H         1 RES1   0.0000
    12 N12     18.1739   7.3923  13.6559   N.pl3     1 RES1   0.0000
    13 C13     17.5910   8.1690  12.6760   C.2       1 RES1   0.0000
    14 C14     16.7832   7.7466  11.5090   C.ar      1 RES1   0.0000
    15 C15     16.4081   6.4260  11.2837   C.ar      1 RES1   0.0000
    16 H16     16.7296   5.6498  11.9694   H         1 RES1   0.0000
    17 C17     15.6328   6.0847  10.1905   C.ar      1 RES1   0.0000
    18 H18     15.3370   5.0504  10.0504   H         1 RES1   0.0000
    19 C19     15.2276   7.0357   9.2691   C.ar      1 RES1   0.0000
    20 C20     14.3798   6.6545   8.0804   C.3       1 RES1   0.0000
    21 H21     13.9590   7.5390   7.6070   H         1 RES1   0.0000
    22 H22     14.9714   6.1213   7.3389   H         1 RES1   0.0000
    23 H23     13.5583   6.0098   8.3857   H         1 RES1   0.0000
    24 C24     15.6245   8.3460   9.4786   C.ar      1 RES1   0.0000
    25 H25     15.3284   9.1111   8.7688   H         1 RES1   0.0000
    26 C26     16.3902   8.6987  10.5753   C.ar      1 RES1   0.0000
    27 H27     16.6870   9.7336  10.7104   H         1 RES1   0.0000
    28 C28     17.9041   9.4800  12.9818   C.2       1 RES1   0.0000
    29 H29     17.6056  10.3704  12.4383   H         1 RES1   0.0000
    30 C30     18.6929   9.4200  14.1263   C.2       1 RES1   0.0000
    31 C31     19.3040  10.5407  14.8771   C.3       1 RES1   0.0000
    32 F32     19.0284  11.7199  14.3418   F         1 RES1   0.0000
    33 F33     20.6244  10.4552  14.9264   F         1 RES1   0.0000
    34 F34     18.8891  10.5981  16.1332   F         1 RES1   0.0000
    35 N35     18.8861   8.1720  14.5505   N.2       1 RES1   0.0000
    36 N36     19.6200   0.9481  14.7987   N.2       1 RES1  -1.0000
    37 H37     20.2392   1.2888  15.5343   H         1 RES1   0.0000
    38 O38     17.4783   0.9358  13.5400   O.2       1 RES1   0.0000
    39 O39     17.4439   1.3187  15.9329   O.2       1 RES1   0.0000
@<TRIPOS>BOND
     1     1     2    1
     2     1    36    1
     3     1    38    2
     4     1    39    2
     5     2     3   ar
     6     2    10   ar
     7     3     5   ar
     8     3     4    1
     9     5     7   ar
    10     5     6    1
    11     7     8   ar
    12     7    12    1
    13     8    10   ar
    14     8     9    1
    15    10    11    1
    16    12    13    1
    17    12    35    1
    18    13    14    1
    19    13    28    2
    20    14    15   ar
    21    14    26   ar
    22    15    17   ar
    23    15    16    1
    24    17    19   ar
    25    17    18    1
    26    19    20    1
    27    19    24   ar
    28    20    21    1
    29    20    22    1
    30    20    23    1
    31    24    26   ar
    32    24    25    1
    33    26    27    1
    34    28    30    1
    35    28    29    1
    36    30    31    1
    37    30    35    2
    38    31    32    1
    39    31    33    1
    40    31    34    1
    41    36    37    1
@<TRIPOS>SUBSTRUCTURE
     1 RES1        1 GROUP             0 ****  ****    0  
@<TRIPOS>MOLECULE
LIGAND_00072
    39    41     1     0     0
SMALL
USER_CHARGES
****
Generated from the CSD

@<TRIPOS>ATOM
     1 S1      18.1779   1.4932  14.6883   S.o2      1 RES1   0.0000
     2 C2      18.1908   3.2534  14.4075   C.ar      1 RES1   0.0000
     3 C3      17.5790   4.1013  15.3150   C.ar      1 RES1   0.0000
     4 H4      17.1008   3.6978  16.2015   H         1 RES1   0.0000
     5 C5      17.5822   5.4654  15.0860   C.ar      1 RES1   0.0000
     6 H6      17.1225   6.1286  15.8105   H         1 RES1   0.0000
     7 C7      18.1717   5.9906  13.9432   C.ar      1 RES1   0.0000
     8 C8      18.8001   5.1289  13.0545   C.ar      1 RES1   0.0000
     9 H9      19.2885   5.5296  12.1726   H         1 RES1   0.0000
    10 C10     18.8082   3.7644  13.2788   C.ar      1 RES1   0.0000
    11 H11     19.2948   3.0987  12.5736   H         1 RES1   0.0000
    12 N12     18.1739   7.3923  13.6559   N.pl3     1 RES1   0.0000
    13 C13     17.5910   8.1690  12.6760   C.2       1 RES1   0.0000
    14 C14     16.7832   7.7466  11.5090   C.ar      1 RES1   0.0000
    15 C15     16.4081   6.4260  11.2837   C.ar      1 RES1   0.0000
    16 H16     16.7296   5.6498  11.9694   H         1 RES1   0.0000
    17 C17     15.6328   6.0847  10.1905   C.ar      1 RES1   0.0000
    18 H18     15.3370   5.0504  10.0504   H         1 RES1   0.0000
    19 C19     15.2276   7.0357   9.2691   C.ar      1 RES1   0.0000
    20 C20     14.3798   6.6545   8.0804   C.3       1 RES1   0.0000
    21 H21     13.9590   7.5390   7.6070   H         1 RES1   0.0000
    22 H22     14.9714   6.1213   7.3389   H         1 RES1   0.0000
    23 H23     13.5583   6.0098   8.3857   H         1 RES1   0.0000
    24 C24     15.6245   8.3460   9.4786   C.ar      1 RES1   0.0000
    25 H25     15.3284   9.1111   8.7688   H         1 RES1   0.0000
    26 C26     16.3902   8.6987  10.5753   C.ar      1 RES1   0.0000
    27 H27     16.6870   9.7336  10.7104   H         1 RES1   0.0000
    28 C28     17.9041   9.4800  12.9818   C.2       1 RES1   0.0000
    29 H29     17.6056  10.3704  12.4383   H         1 RES1   0.0000
    30 C30     18.6929   9.4200  14.1263   C.2       1 RES1   0.0000
    31 C31     19.3040  10.5407  14.8771   C.3       1 RES1   0.0000
    32 F32     19.0284  11.7199  14.3418   F         1 RES1   0.0000
    33 F33     20.6244  10.4552  14.9264   F         1 RES1   0.0000
    34 F34     18.8891  10.5981  16.1332   F         1 RES1   0.0000
    35 N35     18.8861   8.1720  14.5505   N.2       1 RES1   0.0000
    36 N36     18.8769   1.1489  16.0232   N.2       1 RES1  -1.0000
    37 H37     18.5117   1.5195  16.9006   H         1 RES1   0.0000
    38 O38     18.8848   0.9270  13.5489   O.2       1 RES1   0.0000
    39 O39     16.7690   1.1291  14.7134   O.2       1 RES1   0.0000
@<TRIPOS>BOND
     1     1     2    1
     2     1    36    1
     3     1    38    2
     4     1    39    2
     5     2     3   ar
     6     2    10   ar
     7     3     5   ar
     8     3     4    1
     9     5     7   ar
    10     5     6    1
    11     7     8   ar
    12     7    12    1
    13     8    10   ar
    14     8     9    1
    15    10    11    1
    16    12    13    1
    17    12    35    1
    18    13    14    1
    19    13    28    2
    20    14    15   ar
    21    14    26   ar
    22    15    17   ar
    23    15    16    1
    24    17    19   ar
    25    17    18    1
    26    19    20    1
    27    19    24   ar
    28    20    21    1
    29    20    22    1
    30    20    23    1
    31    24    26   ar
    32    24    25    1
    33    26    27    1
    34    28    30    1
    35    28    29    1
    36    30    31    1
    37    30    35    2
    38    31    32    1
    39    31    33    1
    40    31    34    1
    41    36    37    1
@<TRIPOS>SUBSTRUCTURE
     1 RES1        1 GROUP             0 ****  ****    0  
@<TRIPOS>MOLECULE
LIGAND_00073
    39    41     1     0     0
SMALL
USER_CHARGES
****
Generated from the CSD

@<TRIPOS>ATOM
     1 S1      17.0213  14.9068  10.8028   S.o2      1 RES1   0.0000
     2 C2      17.3294  13.2848  11.4746   C.ar      1 RES1   0.0000
     3 C3      18.0744  12.3687  10.7517   C.ar      1 RES1   0.0000
     4 H4      18.4795  12.6392   9.7821   H         1 RES1   0.0000
     5 C5      18.3005  11.1077  11.2730   C.ar      1 RES1   0.0000
     6 H6      18.9040  10.4004  10.7147   H         1 RES1   0.0000
     7 C7      17.7676  10.7433  12.5028   C.ar      1 RES1   0.0000
     8 C8      17.0417  11.6807  13.2249   C.ar      1 RES1   0.0000
     9 H9      16.6440  11.4175  14.1993   H         1 RES1   0.0000
    10 C10     16.8165  12.9462  12.7150   C.ar      1 RES1   0.0000
    11 H11     16.2406  13.6688  13.2837   H         1 RES1   0.0000
    12 N12     17.9558   9.4412  13.0653   N.pl3     1 RES1   0.0000
    13 C13     17.5910   8.1690  12.6760   C.2       1 RES1   0.0000
    14 C14     16.7832   7.7466  11.5090   C.ar      1 RES1   0.0000
    15 C15     16.5986   6.4136  11.1564   C.ar      1 RES1   0.0000
    16 H16     17.0773   5.6315  11.7354   H         1 RES1   0.0000
    17 C17     15.8154   6.0684  10.0700   C.ar      1 RES1   0.0000
    18 H18     15.6711   5.0203   9.8301   H         1 RES1   0.0000
    19 C19     15.2125   7.0330   9.2805   C.ar      1 RES1   0.0000
    20 C20     14.3577   6.6471   8.0984   C.3       1 RES1   0.0000
    21 H21     13.7783   7.4982   7.7468   H         1 RES1   0.0000
    22 H22     14.9743   6.2925   7.2749   H         1 RES1   0.0000
    23 H23     13.6645   5.8533   8.3688   H         1 RES1   0.0000
    24 C24     15.4192   8.3611   9.6152   C.ar      1 RES1   0.0000
    25 H25     14.9657   9.1387   9.0098   H         1 RES1   0.0000
    26 C26     16.1915   8.7156  10.7067   C.ar      1 RES1   0.0000
    27 H27     16.3363   9.7650  10.9418   H         1 RES1   0.0000
    28 C28     18.1351   7.3062  13.6086   C.2       1 RES1   0.0000
    29 H29     18.0657   6.2235  13.6207   H         1 RES1   0.0000
    30 C30     18.7811   8.1164  14.5370   C.2       1 RES1   0.0000
    31 C31     19.5280   7.7058  15.7481   C.3       1 RES1   0.0000
    32 F32     19.5463   6.3920  15.9116   F         1 RES1   0.0000
    33 F33     19.0092   8.2104  16.8569   F         1 RES1   0.0000
    34 F34     20.7938   8.0933  15.7214   F         1 RES1   0.0000
    35 N35     18.6794   9.4121  14.2448   N.2       1 RES1   0.0000
    36 N36     17.5968  16.0000  11.7318   N.2       1 RES1  -1.0000
    37 H37     18.5968  16.0252  11.9313   H         1 RES1   0.0000
    38 O38     15.5726  14.9991  10.6961   O.2       1 RES1   0.0000
    39 O39     17.6818  14.9058   9.5059   O.2       1 RES1   0.0000
@<TRIPOS>BOND
     1     1     2    1
     2     1    36    1
     3     1    38    2
     4     1    39    2
     5     2     3   ar
     6     2    10   ar
     7     3     5   ar
     8     3     4    1
     9     5     7   ar
    10     5     6    1
    11     7     8   ar
    12     7    12    1
    13     8    10   ar
    14     8     9    1
    15    10    11    1
    16    12    13    1
    17    12    35    1
    18    13    14    1
    19    13    28    2
    20    14    15   ar
    21    14    26   ar
    22    15    17   ar
    23    15    16    1
    24    17    19   ar
    25    17    18    1
    26    19    20    1
    27    19    24   ar
    28    20    21    1
    29    20    22    1
    30    20    23    1
    31    24    26   ar
    32    24    25    1
    33    26    27    1
    34    28    30    1
    35    28    29    1
    36    30    31    1
    37    30    35    2
    38    31    32    1
    39    31    33    1
    40    31    34    1
    41    36    37    1
@<TRIPOS>SUBSTRUCTURE
     1 RES1        1 GROUP             0 ****  ****    0  
@<TRIPOS>MOLECULE
LIGAND_00074
    39    41     1     0     0
SMALL
USER_CHARGES
****
Generated from the CSD

@<TRIPOS>ATOM
     1 S1      17.0213  14.9068  10.8028   S.o2      1 RES1   0.0000
     2 C2      17.3294  13.2848  11.4746   C.ar      1 RES1   0.0000
     3 C3      18.0744  12.3687  10.7517   C.ar      1 RES1   0.0000
     4 H4      18.4795  12.6392   9.7821   H         1 RES1   0.0000
     5 C5      18.3005  11.1077  11.2730   C.ar      1 RES1   0.0000
     6 H6      18.9040  10.4004  10.7147   H         1 RES1   0.0000
     7 C7      17.7676  10.7433  12.5028   C.ar      1 RES1   0.0000
     8 C8      17.0417  11.6807  13.2249   C.ar      1 RES1   0.0000
     9 H9      16.6440  11.4175  14.1993   H         1 RES1   0.0000
    10 C10     16.8165  12.9462  12.7150   C.ar      1 RES1   0.0000
    11 H11     16.2406  13.6688  13.2837   H         1 RES1   0.0000
    12 N12     17.9558   9.4412  13.0653   N.pl3     1 RES1   0.0000
    13 C13     17.5910   8.1690  12.6760   C.2       1 RES1   0.0000
    14 C14     16.7832   7.7466  11.5090   C.ar      1 RES1   0.0000
    15 C15     16.5986   6.4136  11.1564   C.ar      1 RES1   0.0000
    16 H16     17.0773   5.6315  11.7354   H         1 RES1   0.0000
    17 C17     15.8154   6.0684  10.0700   C.ar      1 RES1   0.0000
    18 H18     15.6711   5.0203   9.8301   H         1 RES1   0.0000
    19 C19     15.2125   7.0330   9.2805   C.ar      1 RES1   0.0000
    20 C20     14.3577   6.6471   8.0984   C.3       1 RES1   0.0000
    21 H21     13.7783   7.4982   7.7468   H         1 RES1   0.0000
    22 H22     14.9743   6.2925   7.2749   H         1 RES1   0.0000
    23 H23     13.6645   5.8533   8.3688   H         1 RES1   0.0000
    24 C24     15.4192   8.3611   9.6152   C.ar      1 RES1   0.0000
    25 H25     14.9657   9.1387   9.0098   H         1 RES1   0.0000
    26 C26     16.1915   8.7156  10.7067   C.ar      1 RES1   0.0000
    27 H27     16.3363   9.7650  10.9418   H         1 RES1   0.0000
    28 C28     18.1351   7.3062  13.6086   C.2       1 RES1   0.0000
    29 H29     18.0657   6.2235  13.6207   H         1 RES1   0.0000
    30 C30     18.7811   8.1164  14.5370   C.2       1 RES1   0.0000
    31 C31     19.5280   7.7058  15.7481   C.3       1 RES1   0.0000
    32 F32     19.5463   6.3920  15.9116   F         1 RES1   0.0000
    33 F33     19.0092   8.2104  16.8569   F         1 RES1   0.0000
    34 F34     20.7938   8.0933  15.7214   F         1 RES1   0.0000
    35 N35     18.6794   9.4121  14.2448   N.2       1 RES1   0.0000
    36 N36     18.3508  15.6527  10.5474   N.2       1 RES1  -1.0000
    37 H37     19.0358  15.2664   9.8977   H         1 RES1   0.0000
    38 O38     16.2107  15.5803  11.8067   O.2       1 RES1   0.0000
    39 O39     16.2968  14.6667   9.5636   O.2       1 RES1   0.0000
@<TRIPOS>BOND
     1     1     2    1
     2     1    36    1
     3     1    38    2
     4     1    39    2
     5     2     3   ar
     6     2    10   ar
     7     3     5   ar
     8     3     4    1
     9     5     7   ar
    10     5     6    1
    11     7     8   ar
    12     7    12    1
    13     8    10   ar
    14     8     9    1
    15    10    11    1
    16    12    13    1
    17    12    35    1
    18    13    14    1
    19    13    28    2
    20    14    15   ar
    21    14    26   ar
    22    15    17   ar
    23    15    16    1
    24    17    19   ar
    25    17    18    1
    26    19    20    1
    27    19    24   ar
    28    20    21    1
    29    20    22    1
    30    20    23    1
    31    24    26   ar
    32    24    25    1
    33    26    27    1
    34    28    30    1
    35    28    29    1
    36    30    31    1
    37    30    35    2
    38    31    32    1
    39    31    33    1
    40    31    34    1
    41    36    37    1
@<TRIPOS>SUBSTRUCTURE
     1 RES1        1 GROUP             0 ****  ****    0  
@<TRIPOS>MOLECULE
LIGAND_00075
    39    41     1     0     0
SMALL
USER_CHARGES
****
Generated from the CSD

@<TRIPOS>ATOM
     1 S1      17.3160  14.8714  10.6222   S.o2      1 RES1   0.0000
     2 C2      17.4763  13.2522  11.3500   C.ar      1 RES1   0.0000
     3 C3      16.8936  12.9868  12.5775   C.ar      1 RES1   0.0000
     4 H4      16.3313  13.7587  13.0925   H         1 RES1   0.0000
     5 C5      17.0310  11.7318  13.1427   C.ar      1 RES1   0.0000
     6 H6      16.5538  11.5202  14.0933   H         1 RES1   0.0000
     7 C7      17.7676  10.7433  12.5028   C.ar      1 RES1   0.0000
     8 C8      18.3267  11.0187  11.2623   C.ar      1 RES1   0.0000
     9 H9      18.8806  10.2462  10.7395   H         1 RES1   0.0000
    10 C10     18.1886  12.2682  10.6862   C.ar      1 RES1   0.0000
    11 H11     18.6367  12.4758   9.7201   H         1 RES1   0.0000
    12 N12     17.9558   9.4412  13.0653   N.pl3     1 RES1   0.0000
    13 C13     17.5910   8.1690  12.6760   C.2       1 RES1   0.0000
    14 C14     16.7832   7.7466  11.5090   C.ar      1 RES1   0.0000
    15 C15     16.6102   6.4142  11.1481   C.ar      1 RES1   0.0000
    16 H16     17.0985   5.6329  11.7202   H         1 RES1   0.0000
    17 C17     15.8266   6.0687  10.0621   C.ar      1 RES1   0.0000
    18 H18     15.6916   5.0209   9.8157   H         1 RES1   0.0000
    19 C19     15.2116   7.0328   9.2812   C.ar      1 RES1   0.0000
    20 C20     14.3564   6.6465   8.0995   C.3       1 RES1   0.0000
    21 H21     13.7676   7.4942   7.7557   H         1 RES1   0.0000
    22 H22     14.9735   6.3034   7.2715   H         1 RES1   0.0000
    23 H23     13.6719   5.8442   8.3670   H         1 RES1   0.0000
    24 C24     15.4066   8.3605   9.6242   C.ar      1 RES1   0.0000
    25 H25     14.9435   9.1377   9.0255   H         1 RES1   0.0000
    26 C26     16.1794   8.7152  10.7153   C.ar      1 RES1   0.0000
    27 H27     16.3148   9.7643  10.9569   H         1 RES1   0.0000
    28 C28     18.1351   7.3062  13.6086   C.2       1 RES1   0.0000
    29 H29     18.0657   6.2235  13.6207   H         1 RES1   0.0000
    30 C30     18.7811   8.1164  14.5370   C.2       1 RES1   0.0000
    31 C31     19.5280   7.7058  15.7481   C.3       1 RES1   0.0000
    32 F32     19.5463   6.3920  15.9116   F         1 RES1   0.0000
    33 F33     19.0092   8.2104  16.8569   F         1 RES1   0.0000
    34 F34     20.7938   8.0933  15.7214   F         1 RES1   0.0000
    35 N35     18.6794   9.4121  14.2448   N.2       1 RES1   0.0000
    36 N36     16.6049  14.7856   9.2525   N.2       1 RES1  -1.0000
    37 H37     15.6556  14.4170   9.1928   H         1 RES1   0.0000
    38 O38     18.6809  15.3596  10.4904   O.2       1 RES1   0.0000
    39 O39     16.5352  15.6371  11.5825   O.2       1 RES1   0.0000
@<TRIPOS>BOND
     1     1     2    1
     2     1    36    1
     3     1    38    2
     4     1    39    2
     5     2     3   ar
     6     2    10   ar
     7     3     5   ar
     8     3     4    1
     9     5     7   ar
    10     5     6    1
    11     7     8   ar
    12     7    12    1
    13     8    10   ar
    14     8     9    1
    15    10    11    1
    16    12    13    1
    17    12    35    1
    18    13    14    1
    19    13    28    2
    20    14    15   ar
    21    14    26   ar
    22    15    17   ar
    23    15    16    1
    24    17    19   ar
    25    17    18    1
    26    19    20    1
    27    19    24   ar
    28    20    21    1
    29    20    22    1
    30    20    23    1
    31    24    26   ar
    32    24    25    1
    33    26    27    1
    34    28    30    1
    35    28    29    1
    36    30    31    1
    37    30    35    2
    38    31    32    1
    39    31    33    1
    40    31    34    1
    41    36    37    1
@<TRIPOS>SUBSTRUCTURE
     1 RES1        1 GROUP             0 ****  ****    0  
@<TRIPOS>MOLECULE
LIGAND_00076
    39    41     1     0     0
SMALL
USER_CHARGES
****
Generated from the CSD

@<TRIPOS>ATOM
     1 S1      17.3160  14.8714  10.6222   S.o2      1 RES1   0.0000
     2 C2      17.4763  13.2522  11.3500   C.ar      1 RES1   0.0000
     3 C3      16.8936  12.9868  12.5775   C.ar      1 RES1   0.0000
     4 H4      16.3313  13.7587  13.0925   H         1 RES1   0.0000
     5 C5      17.0310  11.7318  13.1427   C.ar      1 RES1   0.0000
     6 H6      16.5538  11.5202  14.0933   H         1 RES1   0.0000
     7 C7      17.7676  10.7433  12.5028   C.ar      1 RES1   0.0000
     8 C8      18.3267  11.0187  11.2623   C.ar      1 RES1   0.0000
     9 H9      18.8806  10.2462  10.7395   H         1 RES1   0.0000
    10 C10     18.1886  12.2682  10.6862   C.ar      1 RES1   0.0000
    11 H11     18.6367  12.4758   9.7201   H         1 RES1   0.0000
    12 N12     17.9558   9.4412  13.0653   N.pl3     1 RES1   0.0000
    13 C13     17.5910   8.1690  12.6760   C.2       1 RES1   0.0000
    14 C14     16.7832   7.7466  11.5090   C.ar      1 RES1   0.0000
    15 C15     16.6102   6.4142  11.1481   C.ar      1 RES1   0.0000
    16 H16     17.0985   5.6329  11.7202   H         1 RES1   0.0000
    17 C17     15.8266   6.0687  10.0621   C.ar      1 RES1   0.0000
    18 H18     15.6916   5.0209   9.8157   H         1 RES1   0.0000
    19 C19     15.2116   7.0328   9.2812   C.ar      1 RES1   0.0000
    20 C20     14.3564   6.6465   8.0995   C.3       1 RES1   0.0000
    21 H21     13.7676   7.4942   7.7557   H         1 RES1   0.0000
    22 H22     14.9735   6.3034   7.2715   H         1 RES1   0.0000
    23 H23     13.6719   5.8442   8.3670   H         1 RES1   0.0000
    24 C24     15.4066   8.3605   9.6242   C.ar      1 RES1   0.0000
    25 H25     14.9435   9.1377   9.0255   H         1 RES1   0.0000
    26 C26     16.1794   8.7152  10.7153   C.ar      1 RES1   0.0000
    27 H27     16.3148   9.7643  10.9569   H         1 RES1   0.0000
    28 C28     18.1351   7.3062  13.6086   C.2       1 RES1   0.0000
    29 H29     18.0657   6.2235  13.6207   H         1 RES1   0.0000
    30 C30     18.7811   8.1164  14.5370   C.2       1 RES1   0.0000
    31 C31     19.5280   7.7058  15.7481   C.3       1 RES1   0.0000
    32 F32     19.5463   6.3920  15.9116   F         1 RES1   0.0000
    33 F33     19.0092   8.2104  16.8569   F         1 RES1   0.0000
    34 F34     20.7938   8.0933  15.7214   F         1 RES1   0.0000
    35 N35     18.6794   9.4121  14.2448   N.2       1 RES1   0.0000
    36 N36     15.8280  15.2209  10.3921   N.2       1 RES1  -1.0000
    37 H37     15.1862  15.2654  11.1837   H         1 RES1   0.0000
    38 O38     18.0505  14.7927   9.3680   O.2       1 RES1   0.0000
    39 O39     17.9351  15.7749  11.5807   O.2       1 RES1   0.0000
@<TRIPOS>BOND
     1     1     2    1
     2     1    36    1
     3     1    38    2
     4     1    39    2
     5     2     3   ar
     6     2    10   ar
     7     3     5   ar
     8     3     4    1
     9     5     7   ar
    10     5     6    1
    11     7     8   ar
    12     7    12    1
    13     8    10   ar
    14     8     9    1
    15    10    11    1
    16    12    13    1
    17    12    35    1
    18    13    14    1
    19    13    28    2
    20    14    15   ar
    21    14    26   ar
    22    15    17   ar
    23    15    16    1
    24    17    19   ar
    25    17    18    1
    26    19    20    1
    27    19    24   ar
    28    20    21    1
    29    20    22    1
    30    20    23    1
    31    24    26   ar
    32    24    25    1
    33    26    27    1
    34    28    30    1
    35    28    29    1
    36    30    31    1
    37    30    35    2
    38    31    32    1
    39    31    33    1
    40    31    34    1
    41    36    37    1
@<TRIPOS>SUBSTRUCTURE
     1 RES1        1 GROUP             0 ****  ****    0  
