@<TRIPOS>MOLECULE
LIGAND
   39    41     0     0     0
SMALL
NO_CHARGES

@<TRIPOS>ATOM
      1 C1          3.1351   -0.5824    1.5029 C.ar      1 <0>         0.0000
      2 C2          1.6284   -2.1060    0.3869 C.ar      1 <0>         0.0000
      3 C3          2.0565   -0.0089    2.1762 C.ar      1 <0>         0.0000
      4 C4          0.5497   -1.5325    1.0602 C.ar      1 <0>         0.0000
      5 C5          3.6754   -4.3832    2.1478 C.ar      1 <0>         0.0000
      6 C6          3.2270   -5.6488    0.1392 C.ar      1 <0>         0.0000
      7 C7          3.0469   -5.3687    2.9090 C.ar      1 <0>         0.0000
      8 C8          2.5985   -6.6343    0.9005 C.ar      1 <0>         0.0000
      9 C9          4.9383   -1.6466   -0.9484 C.2       1 <0>         0.0000
     10 C10         2.9210   -1.6309    0.6081 C.ar      1 <0>         0.0000
     11 C11         0.7638   -0.4840    1.9549 C.ar      1 <0>         0.0000
     12 C12         3.7653   -4.5232    0.7629 C.ar      1 <0>         0.0000
     13 C13         2.5085   -6.4943    2.2854 C.ar      1 <0>         0.0000
     14 C14         4.0364   -2.2239   -0.0883 C.2       1 <0>         0.0000
     15 C15         5.7954   -2.7001   -1.3187 C.2       1 <0>         0.0000
     16 C16        -0.3893    0.1295    2.6745 C.3       1 <0>         0.0000
     17 C17         6.9497   -2.6387   -2.2308 C.3       1 <0>         0.0000
     18 N1          5.4676   -3.8589   -0.7409 N.2       1 <0>         0.0000
     19 N2          0.1694   -7.3347    3.3385 N.2       1 <0>         0.0000
     20 N3          4.3945   -3.5368    0.0012 N.pl3     1 <0>         0.0000
     21 O1          1.9575   -8.9823    2.5009 O.2       1 <0>         0.0000
     22 O2          2.4145   -7.6975    4.5394 O.2       1 <0>         0.0000
     23 F1          7.1864   -1.3942   -2.7621 F         1 <0>         0.0000
     24 F2          8.1452   -2.9940   -1.6551 F         1 <0>         0.0000
     25 F3          6.8274   -3.4652   -3.3195 F         1 <0>         0.0000
     26 S1          1.7235   -7.7286    3.2386 S.o2      1 <0>         0.0000
     27 H1          4.1367   -0.2007    1.6860 H         1 <0>         0.0000
     28 H2          1.4453   -2.9228   -0.3072 H         1 <0>         0.0000
     29 H3          2.2324    0.8079    2.8712 H         1 <0>         0.0000
     30 H4         -0.4538   -1.9093    0.8814 H         1 <0>         0.0000
     31 H5          4.0910   -3.5113    2.6472 H         1 <0>         0.0000
     32 H6          3.2905   -5.7709   -0.9393 H         1 <0>         0.0000
     33 H7          2.9826   -5.2501    3.9874 H         1 <0>         0.0000
     34 H8          2.1828   -7.5074    0.4045 H         1 <0>         0.0000
     35 H9          4.9727   -0.6133   -1.2635 H         1 <0>         0.0000
     36 H10        -0.8024    0.9632    2.0936 H         1 <0>         0.0000
     37 H11        -1.1878   -0.6040    2.8463 H         1 <0>         0.0000
     38 H12        -0.0883    0.5078    3.6603 H         1 <0>         0.0000
     39 H13        -0.3287   -8.0371    3.8964 H         1 <0>         0.0000
@<TRIPOS>BOND
     1    1    3 ar
     2    1   10 ar
     3    2    4 ar
     4    2   10 ar
     5    3   11 ar
     6    4   11 ar
     7    5    7 ar
     8    5   12 ar
     9    6    8 ar
    10    6   12 ar
    11    7   13 ar
    12    8   13 ar
    13    9   14 2
    14    9   15 1
    15   10   14 1
    16   11   16 1
    17   12   20 1
    18   13   26 1
    19   14   20 1
    20   15   17 1
    21   15   18 2
    22   17   23 1
    23   17   24 1
    24   17   25 1
    25   18   20 1
    26   19   26 1
    27   21   26 2
    28   22   26 2
    29    1   27 1
    30    2   28 1
    31    3   29 1
    32    4   30 1
    33    5   31 1
    34    6   32 1
    35    7   33 1
    36    8   34 1
    37    9   35 1
    38   16   36 1
    39   16   37 1
    40   16   38 1
    41   19   39 1
@<TRIPOS>MOLECULE
LIGAND
   39    41     0     0     0
SMALL
NO_CHARGES

@<TRIPOS>ATOM
      1 C1          3.1351   -0.5824    1.5029 C.ar      1 <0>         0.0000
      2 C2          1.6284   -2.1060    0.3869 C.ar      1 <0>         0.0000
      3 C3          2.0565   -0.0089    2.1762 C.ar      1 <0>         0.0000
      4 C4          0.5497   -1.5325    1.0602 C.ar      1 <0>         0.0000
      5 C5          3.6754   -4.3832    2.1478 C.ar      1 <0>         0.0000
      6 C6          3.2270   -5.6488    0.1392 C.ar      1 <0>         0.0000
      7 C7          3.0469   -5.3687    2.9090 C.ar      1 <0>         0.0000
      8 C8          2.5985   -6.6343    0.9005 C.ar      1 <0>         0.0000
      9 C9          4.9383   -1.6466   -0.9484 C.2       1 <0>         0.0000
     10 C10         2.9210   -1.6309    0.6081 C.ar      1 <0>         0.0000
     11 C11         0.7638   -0.4840    1.9549 C.ar      1 <0>         0.0000
     12 C12         3.7653   -4.5232    0.7629 C.ar      1 <0>         0.0000
     13 C13         2.5085   -6.4943    2.2854 C.ar      1 <0>         0.0000
     14 C14         4.0364   -2.2239   -0.0883 C.2       1 <0>         0.0000
     15 C15         5.7954   -2.7001   -1.3187 C.2       1 <0>         0.0000
     16 C16        -0.3893    0.1295    2.6745 C.3       1 <0>         0.0000
     17 C17         6.9497   -2.6387   -2.2308 C.3       1 <0>         0.0000
     18 N1          5.4676   -3.8589   -0.7409 N.2       1 <0>         0.0000
     19 N2          2.8507   -8.7938    3.6572 N.2       1 <0>         0.0000
     20 N3          4.3945   -3.5368    0.0012 N.pl3     1 <0>         0.0000
     21 O1          1.1493   -7.0098    4.3895 O.2       1 <0>         0.0000
     22 O2          0.6930   -8.2935    2.3500 O.2       1 <0>         0.0000
     23 F1          7.1864   -1.3942   -2.7621 F         1 <0>         0.0000
     24 F2          8.1452   -2.9940   -1.6551 F         1 <0>         0.0000
     25 F3          6.8274   -3.4652   -3.3195 F         1 <0>         0.0000
     26 S1          1.7235   -7.7286    3.2386 S.o2      1 <0>         0.0000
     27 H1          4.1367   -0.2007    1.6860 H         1 <0>         0.0000
     28 H2          1.4453   -2.9228   -0.3072 H         1 <0>         0.0000
     29 H3          2.2324    0.8079    2.8712 H         1 <0>         0.0000
     30 H4         -0.4538   -1.9093    0.8814 H         1 <0>         0.0000
     31 H5          4.0910   -3.5113    2.6472 H         1 <0>         0.0000
     32 H6          3.2905   -5.7709   -0.9393 H         1 <0>         0.0000
     33 H7          2.9826   -5.2501    3.9874 H         1 <0>         0.0000
     34 H8          2.1828   -7.5074    0.4045 H         1 <0>         0.0000
     35 H9          4.9727   -0.6133   -1.2635 H         1 <0>         0.0000
     36 H10        -0.8024    0.9632    2.0936 H         1 <0>         0.0000
     37 H11        -1.1878   -0.6040    2.8463 H         1 <0>         0.0000
     38 H12        -0.0883    0.5078    3.6603 H         1 <0>         0.0000
     39 H13         2.4269   -9.5409    4.2186 H         1 <0>         0.0000
@<TRIPOS>BOND
     1    1    3 ar
     2    1   10 ar
     3    2    4 ar
     4    2   10 ar
     5    3   11 ar
     6    4   11 ar
     7    5    7 ar
     8    5   12 ar
     9    6    8 ar
    10    6   12 ar
    11    7   13 ar
    12    8   13 ar
    13    9   14 2
    14    9   15 1
    15   10   14 1
    16   11   16 1
    17   12   20 1
    18   13   26 1
    19   14   20 1
    20   15   17 1
    21   15   18 2
    22   17   23 1
    23   17   24 1
    24   17   25 1
    25   18   20 1
    26   19   26 1
    27   21   26 2
    28   22   26 2
    29    1   27 1
    30    2   28 1
    31    3   29 1
    32    4   30 1
    33    5   31 1
    34    6   32 1
    35    7   33 1
    36    8   34 1
    37    9   35 1
    38   16   36 1
    39   16   37 1
    40   16   38 1
    41   19   39 1
@<TRIPOS>MOLECULE
LIGAND
   39    41     0     0     0
SMALL
NO_CHARGES

@<TRIPOS>ATOM
      1 C1          1.8851   -1.0364   -0.1124 C.ar      1 <0>         0.0000
      2 C2          2.8783   -1.6519    2.0022 C.ar      1 <0>         0.0000
      3 C3          0.8065   -0.4631    0.5610 C.ar      1 <0>         0.0000
      4 C4          1.7997   -1.0786    2.6757 C.ar      1 <0>         0.0000
      5 C5          2.4254   -4.8343    0.5314 C.ar      1 <0>         0.0000
      6 C6          4.4764   -5.1976    1.7555 C.ar      1 <0>         0.0000
      7 C7          1.7966   -5.8197    1.2924 C.ar      1 <0>         0.0000
      8 C8          3.8476   -6.1830    2.5165 C.ar      1 <0>         0.0000
      9 C9          4.9383   -1.6466   -0.9484 C.2       1 <0>         0.0000
     10 C10         2.9210   -1.6309    0.6081 C.ar      1 <0>         0.0000
     11 C11         0.7638   -0.4841    1.9551 C.ar      1 <0>         0.0000
     12 C12         3.7653   -4.5232    0.7629 C.ar      1 <0>         0.0000
     13 C13         2.5077   -6.4941    2.2850 C.ar      1 <0>         0.0000
     14 C14         4.0364   -2.2239   -0.0883 C.2       1 <0>         0.0000
     15 C15         5.7954   -2.7001   -1.3187 C.2       1 <0>         0.0000
     16 C16        -0.3896    0.1284    2.6750 C.3       1 <0>         0.0000
     17 C17         6.9497   -2.6387   -2.2308 C.3       1 <0>         0.0000
     18 N1          5.4676   -3.8589   -0.7409 N.2       1 <0>         0.0000
     19 N2          1.0838   -6.9991    4.5220 N.2       1 <0>         0.0000
     20 N3          4.3945   -3.5368    0.0012 N.pl3     1 <0>         0.0000
     21 O1          0.7071   -8.3094    2.3414 O.2       1 <0>         0.0000
     22 O2          2.7899   -8.6789    3.5828 O.2       1 <0>         0.0000
     23 F1          7.1864   -1.3942   -2.7621 F         1 <0>         0.0000
     24 F2          8.1452   -2.9940   -1.6551 F         1 <0>         0.0000
     25 F3          6.8274   -3.4652   -3.3195 F         1 <0>         0.0000
     26 S1          1.7200   -7.7263    3.2387 S.o2      1 <0>         0.0000
     27 H1          1.9037   -1.0121   -1.1995 H         1 <0>         0.0000
     28 H2          3.6783   -2.1113    2.5781 H         1 <0>         0.0000
     29 H3          0.0036   -0.0024   -0.0084 H         1 <0>         0.0000
     30 H4          1.7751   -1.0998    3.7620 H         1 <0>         0.0000
     31 H5          1.8589   -4.3163   -0.2388 H         1 <0>         0.0000
     32 H6          5.5211   -4.9648    1.9469 H         1 <0>         0.0000
     33 H7          0.7523   -6.0540    1.1042 H         1 <0>         0.0000
     34 H8          4.4108   -6.7021    3.2876 H         1 <0>         0.0000
     35 H9          4.9727   -0.6133   -1.2635 H         1 <0>         0.0000
     36 H10        -1.1812   -0.6148    2.8306 H         1 <0>         0.0000
     37 H11        -0.0851    0.5223    3.6534 H         1 <0>         0.0000
     38 H12        -0.8097    0.9711    2.1103 H         1 <0>         0.0000
     39 H13         0.6122   -7.6932    5.1125 H         1 <0>         0.0000
@<TRIPOS>BOND
     1    1    3 ar
     2    1   10 ar
     3    2    4 ar
     4    2   10 ar
     5    3   11 ar
     6    4   11 ar
     7    5    7 ar
     8    5   12 ar
     9    6    8 ar
    10    6   12 ar
    11    7   13 ar
    12    8   13 ar
    13    9   14 2
    14    9   15 1
    15   10   14 1
    16   11   16 1
    17   12   20 1
    18   13   26 1
    19   14   20 1
    20   15   17 1
    21   15   18 2
    22   17   23 1
    23   17   24 1
    24   17   25 1
    25   18   20 1
    26   19   26 1
    27   21   26 2
    28   22   26 2
    29    1   27 1
    30    2   28 1
    31    3   29 1
    32    4   30 1
    33    5   31 1
    34    6   32 1
    35    7   33 1
    36    8   34 1
    37    9   35 1
    38   16   36 1
    39   16   37 1
    40   16   38 1
    41   19   39 1
@<TRIPOS>MOLECULE
LIGAND
   39    41     0     0     0
SMALL
NO_CHARGES

@<TRIPOS>ATOM
      1 C1          1.8851   -1.0364   -0.1124 C.ar      1 <0>         0.0000
      2 C2          2.8783   -1.6519    2.0022 C.ar      1 <0>         0.0000
      3 C3          0.8065   -0.4631    0.5610 C.ar      1 <0>         0.0000
      4 C4          1.7997   -1.0786    2.6757 C.ar      1 <0>         0.0000
      5 C5          2.4254   -4.8343    0.5314 C.ar      1 <0>         0.0000
      6 C6          4.4764   -5.1976    1.7555 C.ar      1 <0>         0.0000
      7 C7          1.7966   -5.8197    1.2924 C.ar      1 <0>         0.0000
      8 C8          3.8476   -6.1830    2.5165 C.ar      1 <0>         0.0000
      9 C9          4.9383   -1.6466   -0.9484 C.2       1 <0>         0.0000
     10 C10         2.9210   -1.6309    0.6081 C.ar      1 <0>         0.0000
     11 C11         0.7638   -0.4841    1.9551 C.ar      1 <0>         0.0000
     12 C12         3.7653   -4.5232    0.7629 C.ar      1 <0>         0.0000
     13 C13         2.5077   -6.4941    2.2850 C.ar      1 <0>         0.0000
     14 C14         4.0364   -2.2239   -0.0883 C.2       1 <0>         0.0000
     15 C15         5.7954   -2.7001   -1.3187 C.2       1 <0>         0.0000
     16 C16        -0.3896    0.1284    2.6750 C.3       1 <0>         0.0000
     17 C17         6.9497   -2.6387   -2.2308 C.3       1 <0>         0.0000
     18 N1          5.4676   -3.8589   -0.7409 N.2       1 <0>         0.0000
     19 N2          1.9277   -9.1236    2.4740 N.2       1 <0>         0.0000
     20 N3          4.3945   -3.5368    0.0012 N.pl3     1 <0>         0.0000
     21 O1          2.3914   -7.6772    4.5493 O.2       1 <0>         0.0000
     22 O2          0.3094   -7.3066    3.3070 O.2       1 <0>         0.0000
     23 F1          7.1864   -1.3942   -2.7621 F         1 <0>         0.0000
     24 F2          8.1452   -2.9940   -1.6551 F         1 <0>         0.0000
     25 F3          6.8274   -3.4652   -3.3195 F         1 <0>         0.0000
     26 S1          1.7200   -7.7263    3.2387 S.o2      1 <0>         0.0000
     27 H1          1.9037   -1.0121   -1.1995 H         1 <0>         0.0000
     28 H2          3.6783   -2.1113    2.5781 H         1 <0>         0.0000
     29 H3          0.0036   -0.0024   -0.0084 H         1 <0>         0.0000
     30 H4          1.7751   -1.0998    3.7620 H         1 <0>         0.0000
     31 H5          1.8589   -4.3163   -0.2388 H         1 <0>         0.0000
     32 H6          5.5211   -4.9648    1.9469 H         1 <0>         0.0000
     33 H7          0.7523   -6.0540    1.1042 H         1 <0>         0.0000
     34 H8          4.4108   -6.7021    3.2876 H         1 <0>         0.0000
     35 H9          4.9727   -0.6133   -1.2635 H         1 <0>         0.0000
     36 H10        -1.1812   -0.6148    2.8306 H         1 <0>         0.0000
     37 H11        -0.0851    0.5223    3.6534 H         1 <0>         0.0000
     38 H12        -0.8097    0.9711    2.1103 H         1 <0>         0.0000
     39 H13         1.4742   -9.8766    3.0035 H         1 <0>         0.0000
@<TRIPOS>BOND
     1    1    3 ar
     2    1   10 ar
     3    2    4 ar
     4    2   10 ar
     5    3   11 ar
     6    4   11 ar
     7    5    7 ar
     8    5   12 ar
     9    6    8 ar
    10    6   12 ar
    11    7   13 ar
    12    8   13 ar
    13    9   14 2
    14    9   15 1
    15   10   14 1
    16   11   16 1
    17   12   20 1
    18   13   26 1
    19   14   20 1
    20   15   17 1
    21   15   18 2
    22   17   23 1
    23   17   24 1
    24   17   25 1
    25   18   20 1
    26   19   26 1
    27   21   26 2
    28   22   26 2
    29    1   27 1
    30    2   28 1
    31    3   29 1
    32    4   30 1
    33    5   31 1
    34    6   32 1
    35    7   33 1
    36    8   34 1
    37    9   35 1
    38   16   36 1
    39   16   37 1
    40   16   38 1
    41   19   39 1
@<TRIPOS>MOLECULE
LIGAND
   39    41     0     0     0
SMALL
NO_CHARGES

@<TRIPOS>ATOM
      1 C1          3.1351   -0.5824    1.5029 C.ar      1 <0>         0.0000
      2 C2          1.6284   -2.1060    0.3869 C.ar      1 <0>         0.0000
      3 C3          2.0565   -0.0089    2.1762 C.ar      1 <0>         0.0000
      4 C4          0.5497   -1.5325    1.0602 C.ar      1 <0>         0.0000
      5 C5          3.6754   -4.3832    2.1478 C.ar      1 <0>         0.0000
      6 C6          3.2270   -5.6488    0.1392 C.ar      1 <0>         0.0000
      7 C7          3.0469   -5.3687    2.9090 C.ar      1 <0>         0.0000
      8 C8          2.5985   -6.6343    0.9005 C.ar      1 <0>         0.0000
      9 C9          4.9383   -1.6466   -0.9484 C.2       1 <0>         0.0000
     10 C10         2.9210   -1.6309    0.6081 C.ar      1 <0>         0.0000
     11 C11         0.7638   -0.4840    1.9549 C.ar      1 <0>         0.0000
     12 C12         3.7653   -4.5232    0.7629 C.ar      1 <0>         0.0000
     13 C13         2.5085   -6.4943    2.2854 C.ar      1 <0>         0.0000
     14 C14         4.0364   -2.2239   -0.0883 C.2       1 <0>         0.0000
     15 C15         5.7954   -2.7001   -1.3187 C.2       1 <0>         0.0000
     16 C16        -0.3893    0.1295    2.6745 C.3       1 <0>         0.0000
     17 C17         6.9497   -2.6387   -2.2308 C.3       1 <0>         0.0000
     18 N1          5.4676   -3.8589   -0.7409 N.2       1 <0>         0.0000
     19 N2          1.2244   -8.8678    2.2220 N.2       1 <0>         0.0000
     20 N3          4.3945   -3.5368    0.0012 N.pl3     1 <0>         0.0000
     21 O1          2.7594   -8.2000    4.1743 O.2       1 <0>         0.0000
     22 O2          0.6172   -7.0334    3.9193 O.2       1 <0>         0.0000
     23 F1          7.1864   -1.3942   -2.7621 F         1 <0>         0.0000
     24 F2          8.1452   -2.9940   -1.6551 F         1 <0>         0.0000
     25 F3          6.8274   -3.4652   -3.3195 F         1 <0>         0.0000
     26 S1          1.7235   -7.7286    3.2386 S.o2      1 <0>         0.0000
     27 H1          4.1367   -0.2007    1.6860 H         1 <0>         0.0000
     28 H2          1.4453   -2.9228   -0.3072 H         1 <0>         0.0000
     29 H3          2.2324    0.8079    2.8712 H         1 <0>         0.0000
     30 H4         -0.4538   -1.9093    0.8814 H         1 <0>         0.0000
     31 H5          4.0910   -3.5113    2.6472 H         1 <0>         0.0000
     32 H6          3.2905   -5.7709   -0.9393 H         1 <0>         0.0000
     33 H7          2.9826   -5.2501    3.9874 H         1 <0>         0.0000
     34 H8          2.1828   -7.5074    0.4045 H         1 <0>         0.0000
     35 H9          4.9727   -0.6133   -1.2635 H         1 <0>         0.0000
     36 H10        -0.8024    0.9632    2.0936 H         1 <0>         0.0000
     37 H11        -1.1878   -0.6040    2.8463 H         1 <0>         0.0000
     38 H12        -0.0883    0.5078    3.6603 H         1 <0>         0.0000
     39 H13         0.7525   -9.6136    2.7454 H         1 <0>         0.0000
@<TRIPOS>BOND
     1    1    3 ar
     2    1   10 ar
     3    2    4 ar
     4    2   10 ar
     5    3   11 ar
     6    4   11 ar
     7    5    7 ar
     8    5   12 ar
     9    6    8 ar
    10    6   12 ar
    11    7   13 ar
    12    8   13 ar
    13    9   14 2
    14    9   15 1
    15   10   14 1
    16   11   16 1
    17   12   20 1
    18   13   26 1
    19   14   20 1
    20   15   17 1
    21   15   18 2
    22   17   23 1
    23   17   24 1
    24   17   25 1
    25   18   20 1
    26   19   26 1
    27   21   26 2
    28   22   26 2
    29    1   27 1
    30    2   28 1
    31    3   29 1
    32    4   30 1
    33    5   31 1
    34    6   32 1
    35    7   33 1
    36    8   34 1
    37    9   35 1
    38   16   36 1
    39   16   37 1
    40   16   38 1
    41   19   39 1
@<TRIPOS>MOLECULE
LIGAND
   39    41     0     0     0
SMALL
NO_CHARGES

@<TRIPOS>ATOM
      1 C1          3.1351   -0.5824    1.5029 C.ar      1 <0>         0.0000
      2 C2          1.6284   -2.1060    0.3869 C.ar      1 <0>         0.0000
      3 C3          2.0565   -0.0089    2.1762 C.ar      1 <0>         0.0000
      4 C4          0.5497   -1.5325    1.0602 C.ar      1 <0>         0.0000
      5 C5          3.6754   -4.3832    2.1478 C.ar      1 <0>         0.0000
      6 C6          3.2270   -5.6488    0.1392 C.ar      1 <0>         0.0000
      7 C7          3.0469   -5.3687    2.9090 C.ar      1 <0>         0.0000
      8 C8          2.5985   -6.6343    0.9005 C.ar      1 <0>         0.0000
      9 C9          4.9383   -1.6466   -0.9484 C.2       1 <0>         0.0000
     10 C10         2.9210   -1.6309    0.6081 C.ar      1 <0>         0.0000
     11 C11         0.7638   -0.4840    1.9549 C.ar      1 <0>         0.0000
     12 C12         3.7653   -4.5232    0.7629 C.ar      1 <0>         0.0000
     13 C13         2.5085   -6.4943    2.2854 C.ar      1 <0>         0.0000
     14 C14         4.0364   -2.2239   -0.0883 C.2       1 <0>         0.0000
     15 C15         5.7954   -2.7001   -1.3187 C.2       1 <0>         0.0000
     16 C16        -0.3893    0.1295    2.6745 C.3       1 <0>         0.0000
     17 C17         6.9497   -2.6387   -2.2308 C.3       1 <0>         0.0000
     18 N1          5.4676   -3.8589   -0.7409 N.2       1 <0>         0.0000
     19 N2          1.7957   -7.2607    4.7736 N.2       1 <0>         0.0000
     20 N3          4.3945   -3.5368    0.0012 N.pl3     1 <0>         0.0000
     21 O1          0.3474   -7.7921    2.7160 O.2       1 <0>         0.0000
     22 O2          2.4904   -8.9576    2.9702 O.2       1 <0>         0.0000
     23 F1          7.1864   -1.3942   -2.7621 F         1 <0>         0.0000
     24 F2          8.1452   -2.9940   -1.6551 F         1 <0>         0.0000
     25 F3          6.8274   -3.4652   -3.3195 F         1 <0>         0.0000
     26 S1          1.7235   -7.7286    3.2386 S.o2      1 <0>         0.0000
     27 H1          4.1367   -0.2007    1.6860 H         1 <0>         0.0000
     28 H2          1.4453   -2.9228   -0.3072 H         1 <0>         0.0000
     29 H3          2.2324    0.8079    2.8712 H         1 <0>         0.0000
     30 H4         -0.4538   -1.9093    0.8814 H         1 <0>         0.0000
     31 H5          4.0910   -3.5113    2.6472 H         1 <0>         0.0000
     32 H6          3.2905   -5.7709   -0.9393 H         1 <0>         0.0000
     33 H7          2.9826   -5.2501    3.9874 H         1 <0>         0.0000
     34 H8          2.1828   -7.5074    0.4045 H         1 <0>         0.0000
     35 H9          4.9727   -0.6133   -1.2635 H         1 <0>         0.0000
     36 H10        -0.8024    0.9632    2.0936 H         1 <0>         0.0000
     37 H11        -1.1878   -0.6040    2.8463 H         1 <0>         0.0000
     38 H12        -0.0883    0.5078    3.6603 H         1 <0>         0.0000
     39 H13         1.3457   -7.9644    5.3696 H         1 <0>         0.0000
@<TRIPOS>BOND
     1    1    3 ar
     2    1   10 ar
     3    2    4 ar
     4    2   10 ar
     5    3   11 ar
     6    4   11 ar
     7    5    7 ar
     8    5   12 ar
     9    6    8 ar
    10    6   12 ar
    11    7   13 ar
    12    8   13 ar
    13    9   14 2
    14    9   15 1
    15   10   14 1
    16   11   16 1
    17   12   20 1
    18   13   26 1
    19   14   20 1
    20   15   17 1
    21   15   18 2
    22   17   23 1
    23   17   24 1
    24   17   25 1
    25   18   20 1
    26   19   26 1
    27   21   26 2
    28   22   26 2
    29    1   27 1
    30    2   28 1
    31    3   29 1
    32    4   30 1
    33    5   31 1
    34    6   32 1
    35    7   33 1
    36    8   34 1
    37    9   35 1
    38   16   36 1
    39   16   37 1
    40   16   38 1
    41   19   39 1
@<TRIPOS>MOLECULE
LIGAND
   39    41     0     0     0
SMALL
NO_CHARGES

@<TRIPOS>ATOM
      1 C1          1.8851   -1.0364   -0.1124 C.ar      1 <0>         0.0000
      2 C2          2.8783   -1.6519    2.0022 C.ar      1 <0>         0.0000
      3 C3          0.8065   -0.4631    0.5610 C.ar      1 <0>         0.0000
      4 C4          1.7997   -1.0786    2.6757 C.ar      1 <0>         0.0000
      5 C5          2.4254   -4.8343    0.5314 C.ar      1 <0>         0.0000
      6 C6          4.4764   -5.1976    1.7555 C.ar      1 <0>         0.0000
      7 C7          1.7966   -5.8197    1.2924 C.ar      1 <0>         0.0000
      8 C8          3.8476   -6.1830    2.5165 C.ar      1 <0>         0.0000
      9 C9          4.9383   -1.6466   -0.9484 C.2       1 <0>         0.0000
     10 C10         2.9210   -1.6309    0.6081 C.ar      1 <0>         0.0000
     11 C11         0.7638   -0.4841    1.9551 C.ar      1 <0>         0.0000
     12 C12         3.7653   -4.5232    0.7629 C.ar      1 <0>         0.0000
     13 C13         2.5077   -6.4941    2.2850 C.ar      1 <0>         0.0000
     14 C14         4.0364   -2.2239   -0.0883 C.2       1 <0>         0.0000
     15 C15         5.7954   -2.7001   -1.3187 C.2       1 <0>         0.0000
     16 C16        -0.3896    0.1284    2.6750 C.3       1 <0>         0.0000
     17 C17         6.9497   -2.6387   -2.2308 C.3       1 <0>         0.0000
     18 N1          5.4676   -3.8589   -0.7409 N.2       1 <0>         0.0000
     19 N2          2.8086   -8.2929    4.2751 N.2       1 <0>         0.0000
     20 N3          4.3945   -3.5368    0.0012 N.pl3     1 <0>         0.0000
     21 O1          0.5975   -7.0353    3.8970 O.2       1 <0>         0.0000
     22 O2          1.2721   -8.7324    2.2600 O.2       1 <0>         0.0000
     23 F1          7.1864   -1.3942   -2.7621 F         1 <0>         0.0000
     24 F2          8.1452   -2.9940   -1.6551 F         1 <0>         0.0000
     25 F3          6.8274   -3.4652   -3.3195 F         1 <0>         0.0000
     26 S1          1.7200   -7.7263    3.2387 S.o2      1 <0>         0.0000
     27 H1          1.9037   -1.0121   -1.1995 H         1 <0>         0.0000
     28 H2          3.6783   -2.1113    2.5781 H         1 <0>         0.0000
     29 H3          0.0036   -0.0024   -0.0084 H         1 <0>         0.0000
     30 H4          1.7751   -1.0998    3.7620 H         1 <0>         0.0000
     31 H5          1.8589   -4.3163   -0.2388 H         1 <0>         0.0000
     32 H6          5.5211   -4.9648    1.9469 H         1 <0>         0.0000
     33 H7          0.7523   -6.0540    1.1042 H         1 <0>         0.0000
     34 H8          4.4108   -6.7021    3.2876 H         1 <0>         0.0000
     35 H9          4.9727   -0.6133   -1.2635 H         1 <0>         0.0000
     36 H10        -1.1812   -0.6148    2.8306 H         1 <0>         0.0000
     37 H11        -0.0851    0.5223    3.6534 H         1 <0>         0.0000
     38 H12        -0.8097    0.9711    2.1103 H         1 <0>         0.0000
     39 H13         2.3838   -9.0252    4.8547 H         1 <0>         0.0000
@<TRIPOS>BOND
     1    1    3 ar
     2    1   10 ar
     3    2    4 ar
     4    2   10 ar
     5    3   11 ar
     6    4   11 ar
     7    5    7 ar
     8    5   12 ar
     9    6    8 ar
    10    6   12 ar
    11    7   13 ar
    12    8   13 ar
    13    9   14 2
    14    9   15 1
    15   10   14 1
    16   11   16 1
    17   12   20 1
    18   13   26 1
    19   14   20 1
    20   15   17 1
    21   15   18 2
    22   17   23 1
    23   17   24 1
    24   17   25 1
    25   18   20 1
    26   19   26 1
    27   21   26 2
    28   22   26 2
    29    1   27 1
    30    2   28 1
    31    3   29 1
    32    4   30 1
    33    5   31 1
    34    6   32 1
    35    7   33 1
    36    8   34 1
    37    9   35 1
    38   16   36 1
    39   16   37 1
    40   16   38 1
    41   19   39 1
@<TRIPOS>MOLECULE
LIGAND
   39    41     0     0     0
SMALL
NO_CHARGES

@<TRIPOS>ATOM
      1 C1          1.8851   -1.0364   -0.1124 C.ar      1 <0>         0.0000
      2 C2          2.8783   -1.6519    2.0022 C.ar      1 <0>         0.0000
      3 C3          0.8065   -0.4631    0.5610 C.ar      1 <0>         0.0000
      4 C4          1.7997   -1.0786    2.6757 C.ar      1 <0>         0.0000
      5 C5          2.4254   -4.8343    0.5314 C.ar      1 <0>         0.0000
      6 C6          4.4764   -5.1976    1.7555 C.ar      1 <0>         0.0000
      7 C7          1.7966   -5.8197    1.2924 C.ar      1 <0>         0.0000
      8 C8          3.8476   -6.1830    2.5165 C.ar      1 <0>         0.0000
      9 C9          4.9383   -1.6466   -0.9484 C.2       1 <0>         0.0000
     10 C10         2.9210   -1.6309    0.6081 C.ar      1 <0>         0.0000
     11 C11         0.7638   -0.4841    1.9551 C.ar      1 <0>         0.0000
     12 C12         3.7653   -4.5232    0.7629 C.ar      1 <0>         0.0000
     13 C13         2.5077   -6.4941    2.2850 C.ar      1 <0>         0.0000
     14 C14         4.0364   -2.2239   -0.0883 C.2       1 <0>         0.0000
     15 C15         5.7954   -2.7001   -1.3187 C.2       1 <0>         0.0000
     16 C16        -0.3896    0.1284    2.6750 C.3       1 <0>         0.0000
     17 C17         6.9497   -2.6387   -2.2308 C.3       1 <0>         0.0000
     18 N1          5.4676   -3.8589   -0.7409 N.2       1 <0>         0.0000
     19 N2          0.2028   -7.8298    2.7210 N.2       1 <0>         0.0000
     20 N3          4.3945   -3.5368    0.0012 N.pl3     1 <0>         0.0000
     21 O1          2.5010   -8.9514    2.9936 O.2       1 <0>         0.0000
     22 O2          1.8271   -7.2531    4.6298 O.2       1 <0>         0.0000
     23 F1          7.1864   -1.3942   -2.7621 F         1 <0>         0.0000
     24 F2          8.1452   -2.9940   -1.6551 F         1 <0>         0.0000
     25 F3          6.8274   -3.4652   -3.3195 F         1 <0>         0.0000
     26 S1          1.7200   -7.7263    3.2387 S.o2      1 <0>         0.0000
     27 H1          1.9037   -1.0121   -1.1995 H         1 <0>         0.0000
     28 H2          3.6783   -2.1113    2.5781 H         1 <0>         0.0000
     29 H3          0.0036   -0.0024   -0.0084 H         1 <0>         0.0000
     30 H4          1.7751   -1.0998    3.7620 H         1 <0>         0.0000
     31 H5          1.8589   -4.3163   -0.2388 H         1 <0>         0.0000
     32 H6          5.5211   -4.9648    1.9469 H         1 <0>         0.0000
     33 H7          0.7523   -6.0540    1.1042 H         1 <0>         0.0000
     34 H8          4.4108   -6.7021    3.2876 H         1 <0>         0.0000
     35 H9          4.9727   -0.6133   -1.2635 H         1 <0>         0.0000
     36 H10        -1.1812   -0.6148    2.8306 H         1 <0>         0.0000
     37 H11        -0.0851    0.5223    3.6534 H         1 <0>         0.0000
     38 H12        -0.8097    0.9711    2.1103 H         1 <0>         0.0000
     39 H13        -0.2973   -8.5445    3.2613 H         1 <0>         0.0000
@<TRIPOS>BOND
     1    1    3 ar
     2    1   10 ar
     3    2    4 ar
     4    2   10 ar
     5    3   11 ar
     6    4   11 ar
     7    5    7 ar
     8    5   12 ar
     9    6    8 ar
    10    6   12 ar
    11    7   13 ar
    12    8   13 ar
    13    9   14 2
    14    9   15 1
    15   10   14 1
    16   11   16 1
    17   12   20 1
    18   13   26 1
    19   14   20 1
    20   15   17 1
    21   15   18 2
    22   17   23 1
    23   17   24 1
    24   17   25 1
    25   18   20 1
    26   19   26 1
    27   21   26 2
    28   22   26 2
    29    1   27 1
    30    2   28 1
    31    3   29 1
    32    4   30 1
    33    5   31 1
    34    6   32 1
    35    7   33 1
    36    8   34 1
    37    9   35 1
    38   16   36 1
    39   16   37 1
    40   16   38 1
    41   19   39 1
