@<TRIPOS>MOLECULE
LIGAND
   45    45     0     0     0
SMALL
NO_CHARGES

@<TRIPOS>ATOM
      1 C1          0.3537   -1.6987    8.6788 C.ar      1 <0>         0.0000
      2 C2          0.6500   -1.3890    7.3514 C.ar      1 <0>         0.0000
      3 C3         -0.8291   -1.2362    9.2556 C.ar      1 <0>         0.0000
      4 C4         -1.4194   -0.1541    7.1777 C.ar      1 <0>         0.0000
      5 C5         -0.2366   -0.6167    6.6009 C.ar      1 <0>         0.0000
      6 C6         -1.7156   -0.4639    8.5051 C.ar      1 <0>         0.0000
      7 C7          0.0801   -0.2867    5.1871 C.2       1 <0>         0.0000
      8 C8          1.9325   -1.0133    2.6768 C.2       1 <0>         0.0000
      9 C9         -4.0623    0.8550    1.3177 C.3       1 <0>         0.0000
     10 C10        -3.5584   -1.5885    1.6583 C.3       1 <0>         0.0000
     11 C11         0.2195    0.8307    0.9188 C.3       1 <0>         0.0000
     12 C12        -1.0001    1.1700    0.0549 C.3       1 <0>         0.0000
     13 C13         2.3649   -0.5352    1.2935 C.3       1 <0>         0.0000
     14 C14         1.1534   -0.2750    0.3710 C.3       1 <0>         0.0000
     15 C15        -2.9754   -0.2124    1.3599 C.3       1 <0>         0.0000
     16 N1          1.6681    0.0834   -0.9557 N.3       1 <0>         0.0000
     17 N2          1.4238   -0.2520    4.8674 N.am      1 <0>         0.0000
     18 N3          1.7877    0.0290    3.5734 N.am      1 <0>         0.0000
     19 O1         -0.8375   -0.0833    4.3961 O.2       1 <0>         0.0000
     20 O2          1.7602   -2.2018    2.9407 O.2       1 <0>         0.0000
     21 O3          3.2186   -1.5159    0.7230 O.3       1 <0>         0.0000
     22 S1         -2.0977   -0.2515   -0.2193 S.3       1 <0>         0.0000
     23 Cl1        -3.1752    0.1061    9.2174 Cl        1 <0>         0.0000
     24 H1          1.0439   -2.3003    9.2628 H         1 <0>         0.0000
     25 H2          1.5748   -1.7550    6.9130 H         1 <0>         0.0000
     26 H3         -1.0465   -1.4855   10.2910 H         1 <0>         0.0000
     27 H4         -2.1094    0.4477    6.5897 H         1 <0>         0.0000
     28 H5         -4.8019    0.6148    0.5457 H         1 <0>         0.0000
     29 H6         -4.5966    0.9180    2.2722 H         1 <0>         0.0000
     30 H7         -3.6542    1.8453    1.0855 H         1 <0>         0.0000
     31 H8         -4.2902   -1.8663    0.8915 H         1 <0>         0.0000
     32 H9         -4.0769   -1.6012    2.6234 H         1 <0>         0.0000
     33 H10        -2.7856   -2.3656    1.6725 H         1 <0>         0.0000
     34 H11        -0.1531    0.5335    1.9082 H         1 <0>         0.0000
     35 H12         0.7975    1.7493    1.0822 H         1 <0>         0.0000
     36 H13        -0.6573    1.5138   -0.9268 H         1 <0>         0.0000
     37 H14        -1.5832    1.9849    0.4933 H         1 <0>         0.0000
     38 H15         2.9484    0.3859    1.4229 H         1 <0>         0.0000
     39 H16         0.5915   -1.2082    0.2610 H         1 <0>         0.0000
     40 H17        -2.2476    0.0460    2.1366 H         1 <0>         0.0000
     41 H18         0.8845    0.1717   -1.5934 H         1 <0>         0.0000
     42 H19         2.2416   -0.6802   -1.2969 H         1 <0>         0.0000
     43 H20         2.1281   -0.4306    5.5750 H         1 <0>         0.0000
     44 H21         1.9478    0.9869    3.2798 H         1 <0>         0.0000
     45 H22         2.7041   -2.3378    0.6655 H         1 <0>         0.0000
@<TRIPOS>BOND
     1    1    2 ar
     2    1    3 ar
     3    2    5 ar
     4    3    6 ar
     5    4    5 ar
     6    4    6 ar
     7    5    7 1
     8    6   23 1
     9    7   17 am
    10    7   19 2
    11    8   13 1
    12    8   18 am
    13    8   20 2
    14    9   15 1
    15   10   15 1
    16   11   12 1
    17   11   14 1
    18   12   22 1
    19   13   14 1
    20   13   21 1
    21   14   16 1
    22   15   22 1
    23   17   18 1
    24    1   24 1
    25    2   25 1
    26    3   26 1
    27    4   27 1
    28    9   28 1
    29    9   29 1
    30    9   30 1
    31   10   31 1
    32   10   32 1
    33   10   33 1
    34   11   34 1
    35   11   35 1
    36   12   36 1
    37   12   37 1
    38   13   38 1
    39   14   39 1
    40   15   40 1
    41   16   41 1
    42   16   42 1
    43   17   43 1
    44   18   44 1
    45   21   45 1
@<TRIPOS>MOLECULE
LIGAND
   45    45     0     0     0
SMALL
NO_CHARGES

@<TRIPOS>ATOM
      1 C1          0.3862   -0.6315    8.9351 C.ar      1 <0>         0.0000
      2 C2          0.6829   -0.3226    7.6077 C.ar      1 <0>         0.0000
      3 C3         -0.8301   -1.2346    9.2558 C.ar      1 <0>         0.0000
      4 C4         -1.4528   -1.2197    6.9215 C.ar      1 <0>         0.0000
      5 C5         -0.2366   -0.6167    6.6009 C.ar      1 <0>         0.0000
      6 C6         -1.7496   -1.5286    8.2490 C.ar      1 <0>         0.0000
      7 C7          0.0801   -0.2867    5.1871 C.2       1 <0>         0.0000
      8 C8          1.9325   -1.0133    2.6768 C.2       1 <0>         0.0000
      9 C9         -4.0623    0.8550    1.3177 C.3       1 <0>         0.0000
     10 C10        -3.5584   -1.5885    1.6583 C.3       1 <0>         0.0000
     11 C11         0.2195    0.8307    0.9188 C.3       1 <0>         0.0000
     12 C12        -1.0001    1.1700    0.0549 C.3       1 <0>         0.0000
     13 C13         2.3649   -0.5352    1.2935 C.3       1 <0>         0.0000
     14 C14         1.1534   -0.2750    0.3710 C.3       1 <0>         0.0000
     15 C15        -2.9754   -0.2124    1.3599 C.3       1 <0>         0.0000
     16 N1          1.6681    0.0834   -0.9557 N.3       1 <0>         0.0000
     17 N2          1.4238   -0.2520    4.8674 N.am      1 <0>         0.0000
     18 N3          1.7877    0.0290    3.5734 N.am      1 <0>         0.0000
     19 O1         -0.8375   -0.0833    4.3961 O.2       1 <0>         0.0000
     20 O2          1.7602   -2.2018    2.9407 O.2       1 <0>         0.0000
     21 O3          3.2186   -1.5159    0.7230 O.3       1 <0>         0.0000
     22 S1         -2.0977   -0.2515   -0.2193 S.3       1 <0>         0.0000
     23 Cl1        -3.2499   -2.2732    8.6452 Cl        1 <0>         0.0000
     24 H1          1.1023   -0.4028    9.7188 H         1 <0>         0.0000
     25 H2          1.6339    0.1473    7.3703 H         1 <0>         0.0000
     26 H3         -1.0475   -1.4695   10.2945 H         1 <0>         0.0000
     27 H4         -2.1680   -1.4485    6.1339 H         1 <0>         0.0000
     28 H5         -4.8019    0.6148    0.5457 H         1 <0>         0.0000
     29 H6         -4.5966    0.9180    2.2722 H         1 <0>         0.0000
     30 H7         -3.6542    1.8453    1.0855 H         1 <0>         0.0000
     31 H8         -4.2902   -1.8663    0.8915 H         1 <0>         0.0000
     32 H9         -4.0769   -1.6012    2.6234 H         1 <0>         0.0000
     33 H10        -2.7856   -2.3656    1.6725 H         1 <0>         0.0000
     34 H11        -0.1531    0.5335    1.9082 H         1 <0>         0.0000
     35 H12         0.7975    1.7493    1.0822 H         1 <0>         0.0000
     36 H13        -0.6573    1.5138   -0.9268 H         1 <0>         0.0000
     37 H14        -1.5832    1.9849    0.4933 H         1 <0>         0.0000
     38 H15         2.9484    0.3859    1.4229 H         1 <0>         0.0000
     39 H16         0.5915   -1.2082    0.2610 H         1 <0>         0.0000
     40 H17        -2.2476    0.0460    2.1366 H         1 <0>         0.0000
     41 H18         0.8845    0.1717   -1.5934 H         1 <0>         0.0000
     42 H19         2.2416   -0.6802   -1.2969 H         1 <0>         0.0000
     43 H20         2.1281   -0.4306    5.5750 H         1 <0>         0.0000
     44 H21         1.9478    0.9869    3.2798 H         1 <0>         0.0000
     45 H22         2.7041   -2.3378    0.6655 H         1 <0>         0.0000
@<TRIPOS>BOND
     1    1    2 ar
     2    1    3 ar
     3    2    5 ar
     4    3    6 ar
     5    4    5 ar
     6    4    6 ar
     7    5    7 1
     8    6   23 1
     9    7   17 am
    10    7   19 2
    11    8   13 1
    12    8   18 am
    13    8   20 2
    14    9   15 1
    15   10   15 1
    16   11   12 1
    17   11   14 1
    18   12   22 1
    19   13   14 1
    20   13   21 1
    21   14   16 1
    22   15   22 1
    23   17   18 1
    24    1   24 1
    25    2   25 1
    26    3   26 1
    27    4   27 1
    28    9   28 1
    29    9   29 1
    30    9   30 1
    31   10   31 1
    32   10   32 1
    33   10   33 1
    34   11   34 1
    35   11   35 1
    36   12   36 1
    37   12   37 1
    38   13   38 1
    39   14   39 1
    40   15   40 1
    41   16   41 1
    42   16   42 1
    43   17   43 1
    44   18   44 1
    45   21   45 1
@<TRIPOS>MOLECULE
LIGAND
   45    45     0     0     0
SMALL
NO_CHARGES

@<TRIPOS>ATOM
      1 C1         -1.7183   -0.4637    8.5029 C.ar      1 <0>         0.0000
      2 C2         -1.4200   -0.1538    7.1760 C.ar      1 <0>         0.0000
      3 C3         -0.8331   -1.2363    9.2547 C.ar      1 <0>         0.0000
      4 C4          0.6487   -1.3893    7.3526 C.ar      1 <0>         0.0000
      5 C5         -0.2366   -0.6167    6.6009 C.ar      1 <0>         0.0000
      6 C6          0.3503   -1.6991    8.6795 C.ar      1 <0>         0.0000
      7 C7          0.0801   -0.2867    5.1871 C.2       1 <0>         0.0000
      8 C8          1.9325   -1.0133    2.6768 C.2       1 <0>         0.0000
      9 C9         -4.0623    0.8550    1.3177 C.3       1 <0>         0.0000
     10 C10        -3.5584   -1.5885    1.6583 C.3       1 <0>         0.0000
     11 C11         0.2195    0.8307    0.9188 C.3       1 <0>         0.0000
     12 C12        -1.0001    1.1700    0.0549 C.3       1 <0>         0.0000
     13 C13         2.3649   -0.5352    1.2935 C.3       1 <0>         0.0000
     14 C14         1.1534   -0.2750    0.3710 C.3       1 <0>         0.0000
     15 C15        -2.9754   -0.2124    1.3599 C.3       1 <0>         0.0000
     16 N1          1.6681    0.0834   -0.9557 N.3       1 <0>         0.0000
     17 N2          1.4238   -0.2520    4.8674 N.am      1 <0>         0.0000
     18 N3          1.7877    0.0290    3.5734 N.am      1 <0>         0.0000
     19 O1         -0.8375   -0.0833    4.3961 O.2       1 <0>         0.0000
     20 O2          1.7602   -2.2018    2.9407 O.2       1 <0>         0.0000
     21 O3          3.2186   -1.5159    0.7230 O.3       1 <0>         0.0000
     22 S1         -2.0977   -0.2515   -0.2193 S.3       1 <0>         0.0000
     23 Cl1         1.4424   -2.6521    9.6079 Cl        1 <0>         0.0000
     24 H1         -2.6397   -0.1029    8.9506 H         1 <0>         0.0000
     25 H2         -2.1177    0.4490    6.6003 H         1 <0>         0.0000
     26 H3         -1.0790   -1.4697   10.2874 H         1 <0>         0.0000
     27 H4          1.5714   -1.7486    6.9015 H         1 <0>         0.0000
     28 H5         -4.8019    0.6148    0.5457 H         1 <0>         0.0000
     29 H6         -4.5966    0.9180    2.2722 H         1 <0>         0.0000
     30 H7         -3.6542    1.8453    1.0855 H         1 <0>         0.0000
     31 H8         -4.2902   -1.8663    0.8915 H         1 <0>         0.0000
     32 H9         -4.0769   -1.6012    2.6234 H         1 <0>         0.0000
     33 H10        -2.7856   -2.3656    1.6725 H         1 <0>         0.0000
     34 H11        -0.1531    0.5335    1.9082 H         1 <0>         0.0000
     35 H12         0.7975    1.7493    1.0822 H         1 <0>         0.0000
     36 H13        -0.6573    1.5138   -0.9268 H         1 <0>         0.0000
     37 H14        -1.5832    1.9849    0.4933 H         1 <0>         0.0000
     38 H15         2.9484    0.3859    1.4229 H         1 <0>         0.0000
     39 H16         0.5915   -1.2082    0.2610 H         1 <0>         0.0000
     40 H17        -2.2476    0.0460    2.1366 H         1 <0>         0.0000
     41 H18         0.8845    0.1717   -1.5934 H         1 <0>         0.0000
     42 H19         2.2416   -0.6802   -1.2969 H         1 <0>         0.0000
     43 H20         2.1281   -0.4306    5.5750 H         1 <0>         0.0000
     44 H21         1.9478    0.9869    3.2798 H         1 <0>         0.0000
     45 H22         2.7041   -2.3378    0.6655 H         1 <0>         0.0000
@<TRIPOS>BOND
     1    1    2 ar
     2    1    3 ar
     3    2    5 ar
     4    3    6 ar
     5    4    5 ar
     6    4    6 ar
     7    5    7 1
     8    6   23 1
     9    7   17 am
    10    7   19 2
    11    8   13 1
    12    8   18 am
    13    8   20 2
    14    9   15 1
    15   10   15 1
    16   11   12 1
    17   11   14 1
    18   12   22 1
    19   13   14 1
    20   13   21 1
    21   14   16 1
    22   15   22 1
    23   17   18 1
    24    1   24 1
    25    2   25 1
    26    3   26 1
    27    4   27 1
    28    9   28 1
    29    9   29 1
    30    9   30 1
    31   10   31 1
    32   10   32 1
    33   10   33 1
    34   11   34 1
    35   11   35 1
    36   12   36 1
    37   12   37 1
    38   13   38 1
    39   14   39 1
    40   15   40 1
    41   16   41 1
    42   16   42 1
    43   17   43 1
    44   18   44 1
    45   21   45 1
@<TRIPOS>MOLECULE
LIGAND
   45    45     0     0     0
SMALL
NO_CHARGES

@<TRIPOS>ATOM
      1 C1         -1.7508   -1.5308    8.2465 C.ar      1 <0>         0.0000
      2 C2         -1.4530   -1.2202    6.9197 C.ar      1 <0>         0.0000
      3 C3         -0.8322   -1.2379    9.2545 C.ar      1 <0>         0.0000
      4 C4          0.6821   -0.3238    7.6089 C.ar      1 <0>         0.0000
      5 C5         -0.2366   -0.6167    6.6009 C.ar      1 <0>         0.0000
      6 C6          0.3843   -0.6344    8.9357 C.ar      1 <0>         0.0000
      7 C7          0.0801   -0.2867    5.1871 C.2       1 <0>         0.0000
      8 C8          1.9325   -1.0133    2.6768 C.2       1 <0>         0.0000
      9 C9         -4.0623    0.8550    1.3177 C.3       1 <0>         0.0000
     10 C10        -3.5584   -1.5885    1.6583 C.3       1 <0>         0.0000
     11 C11         0.2195    0.8307    0.9188 C.3       1 <0>         0.0000
     12 C12        -1.0001    1.1700    0.0549 C.3       1 <0>         0.0000
     13 C13         2.3649   -0.5352    1.2935 C.3       1 <0>         0.0000
     14 C14         1.1534   -0.2750    0.3710 C.3       1 <0>         0.0000
     15 C15        -2.9754   -0.2124    1.3599 C.3       1 <0>         0.0000
     16 N1          1.6681    0.0834   -0.9557 N.3       1 <0>         0.0000
     17 N2          1.4238   -0.2520    4.8674 N.am      1 <0>         0.0000
     18 N3          1.7877    0.0290    3.5734 N.am      1 <0>         0.0000
     19 O1         -0.8375   -0.0833    4.3961 O.2       1 <0>         0.0000
     20 O2          1.7602   -2.2018    2.9407 O.2       1 <0>         0.0000
     21 O3          3.2186   -1.5159    0.7230 O.3       1 <0>         0.0000
     22 S1         -2.0977   -0.2515   -0.2193 S.3       1 <0>         0.0000
     23 Cl1         1.5171   -0.2728   10.1801 Cl        1 <0>         0.0000
     24 H1         -2.6981   -2.0004    8.4946 H         1 <0>         0.0000
     25 H2         -2.1768   -1.4534    6.1430 H         1 <0>         0.0000
     26 H3         -1.0781   -1.4858   10.2839 H         1 <0>         0.0000
     27 H4          1.6301    0.1476    7.3573 H         1 <0>         0.0000
     28 H5         -4.8019    0.6148    0.5457 H         1 <0>         0.0000
     29 H6         -4.5966    0.9180    2.2722 H         1 <0>         0.0000
     30 H7         -3.6542    1.8453    1.0855 H         1 <0>         0.0000
     31 H8         -4.2902   -1.8663    0.8915 H         1 <0>         0.0000
     32 H9         -4.0769   -1.6012    2.6234 H         1 <0>         0.0000
     33 H10        -2.7856   -2.3656    1.6725 H         1 <0>         0.0000
     34 H11        -0.1531    0.5335    1.9082 H         1 <0>         0.0000
     35 H12         0.7975    1.7493    1.0822 H         1 <0>         0.0000
     36 H13        -0.6573    1.5138   -0.9268 H         1 <0>         0.0000
     37 H14        -1.5832    1.9849    0.4933 H         1 <0>         0.0000
     38 H15         2.9484    0.3859    1.4229 H         1 <0>         0.0000
     39 H16         0.5915   -1.2082    0.2610 H         1 <0>         0.0000
     40 H17        -2.2476    0.0460    2.1366 H         1 <0>         0.0000
     41 H18         0.8845    0.1717   -1.5934 H         1 <0>         0.0000
     42 H19         2.2416   -0.6802   -1.2969 H         1 <0>         0.0000
     43 H20         2.1281   -0.4306    5.5750 H         1 <0>         0.0000
     44 H21         1.9478    0.9869    3.2798 H         1 <0>         0.0000
     45 H22         2.7041   -2.3378    0.6655 H         1 <0>         0.0000
@<TRIPOS>BOND
     1    1    2 ar
     2    1    3 ar
     3    2    5 ar
     4    3    6 ar
     5    4    5 ar
     6    4    6 ar
     7    5    7 1
     8    6   23 1
     9    7   17 am
    10    7   19 2
    11    8   13 1
    12    8   18 am
    13    8   20 2
    14    9   15 1
    15   10   15 1
    16   11   12 1
    17   11   14 1
    18   12   22 1
    19   13   14 1
    20   13   21 1
    21   14   16 1
    22   15   22 1
    23   17   18 1
    24    1   24 1
    25    2   25 1
    26    3   26 1
    27    4   27 1
    28    9   28 1
    29    9   29 1
    30    9   30 1
    31   10   31 1
    32   10   32 1
    33   10   33 1
    34   11   34 1
    35   11   35 1
    36   12   36 1
    37   12   37 1
    38   13   38 1
    39   14   39 1
    40   15   40 1
    41   16   41 1
    42   16   42 1
    43   17   43 1
    44   18   44 1
    45   21   45 1
@<TRIPOS>MOLECULE
LIGAND
   45    45     0     0     0
SMALL
NO_CHARGES

@<TRIPOS>ATOM
      1 C1          1.6033   -1.8028    8.9721 C.ar      1 <0>         0.0000
      2 C2          1.9521   -1.4284    7.6746 C.ar      1 <0>         0.0000
      3 C3          1.5082   -0.8378    9.9749 C.ar      1 <0>         0.0000
      4 C4          2.1109    0.8762    8.3824 C.ar      1 <0>         0.0000
      5 C5          2.2059   -0.0889    7.3797 C.ar      1 <0>         0.0000
      6 C6          1.7620    0.5017    9.6800 C.ar      1 <0>         0.0000
      7 C7          2.5780    0.3091    5.9973 C.2       1 <0>         0.0000
      8 C8          1.9325   -1.0133    2.6768 C.2       1 <0>         0.0000
      9 C9          0.9492    3.5395    4.1781 C.3       1 <0>         0.0000
     10 C10        -1.5671    3.4454    4.1811 C.3       1 <0>         0.0000
     11 C11         0.2195    0.8307    0.9188 C.3       1 <0>         0.0000
     12 C12         0.8590    2.2074    1.1305 C.3       1 <0>         0.0000
     13 C13         2.3649   -0.5352    1.2935 C.3       1 <0>         0.0000
     14 C14         1.1534   -0.2750    0.3710 C.3       1 <0>         0.0000
     15 C15        -0.2901    2.9668    3.5009 C.3       1 <0>         0.0000
     16 N1          1.6681    0.0834   -0.9557 N.3       1 <0>         0.0000
     17 N2          2.1084   -0.5131    4.9911 N.am      1 <0>         0.0000
     18 N3          2.3999   -0.1941    3.6876 N.am      1 <0>         0.0000
     19 O1          3.2488    1.3234    5.8225 O.2       1 <0>         0.0000
     20 O2          1.2610   -2.0296    2.8442 O.2       1 <0>         0.0000
     21 O3          3.2186   -1.5159    0.7230 O.3       1 <0>         0.0000
     22 S1         -0.3102    3.4478    1.7590 S.3       1 <0>         0.0000
     23 Cl1         1.6441    1.6920   10.9176 Cl        1 <0>         0.0000
     24 H1          1.4053   -2.8458    9.2015 H         1 <0>         0.0000
     25 H2          2.0230   -2.1895    6.9018 H         1 <0>         0.0000
     26 H3          1.2354   -1.1445   10.9813 H         1 <0>         0.0000
     27 H4          2.3090    1.9205    8.1493 H         1 <0>         0.0000
     28 H5          0.9275    4.6347    4.1481 H         1 <0>         0.0000
     29 H6          1.0005    3.2436    5.2319 H         1 <0>         0.0000
     30 H7          1.8721    3.2151    3.6839 H         1 <0>         0.0000
     31 H8         -1.6274    4.5391    4.1512 H         1 <0>         0.0000
     32 H9         -1.5938    3.1464    5.2349 H         1 <0>         0.0000
     33 H10        -2.4642    3.0528    3.6891 H         1 <0>         0.0000
     34 H11        -0.6259    0.9652    0.2307 H         1 <0>         0.0000
     35 H12        -0.2197    0.5004    1.8688 H         1 <0>         0.0000
     36 H13         1.2423    2.5738    0.1722 H         1 <0>         0.0000
     37 H14         1.7108    2.1489    1.8142 H         1 <0>         0.0000
     38 H15         2.9484    0.3859    1.4229 H         1 <0>         0.0000
     39 H16         0.5915   -1.2082    0.2610 H         1 <0>         0.0000
     40 H17        -0.2491    1.8731    3.5416 H         1 <0>         0.0000
     41 H18         0.8845    0.1717   -1.5934 H         1 <0>         0.0000
     42 H19         2.2416   -0.6802   -1.2969 H         1 <0>         0.0000
     43 H20         1.5588   -1.3366    5.2110 H         1 <0>         0.0000
     44 H21         2.9499    0.6302    3.4697 H         1 <0>         0.0000
     45 H22         2.7041   -2.3378    0.6655 H         1 <0>         0.0000
@<TRIPOS>BOND
     1    1    2 ar
     2    1    3 ar
     3    2    5 ar
     4    3    6 ar
     5    4    5 ar
     6    4    6 ar
     7    5    7 1
     8    6   23 1
     9    7   17 am
    10    7   19 2
    11    8   13 1
    12    8   18 am
    13    8   20 2
    14    9   15 1
    15   10   15 1
    16   11   12 1
    17   11   14 1
    18   12   22 1
    19   13   14 1
    20   13   21 1
    21   14   16 1
    22   15   22 1
    23   17   18 1
    24    1   24 1
    25    2   25 1
    26    3   26 1
    27    4   27 1
    28    9   28 1
    29    9   29 1
    30    9   30 1
    31   10   31 1
    32   10   32 1
    33   10   33 1
    34   11   34 1
    35   11   35 1
    36   12   36 1
    37   12   37 1
    38   13   38 1
    39   14   39 1
    40   15   40 1
    41   16   41 1
    42   16   42 1
    43   17   43 1
    44   18   44 1
    45   21   45 1
@<TRIPOS>MOLECULE
LIGAND
   45    45     0     0     0
SMALL
NO_CHARGES

@<TRIPOS>ATOM
      1 C1          0.6907   -1.1963    8.9011 C.ar      1 <0>         0.0000
      2 C2          1.0405   -0.8218    7.6038 C.ar      1 <0>         0.0000
      3 C3          1.5064   -0.8378    9.9744 C.ar      1 <0>         0.0000
      4 C4          3.0216    0.2696    8.4530 C.ar      1 <0>         0.0000
      5 C5          2.2059   -0.0889    7.3797 C.ar      1 <0>         0.0000
      6 C6          2.6718   -0.1048    9.7503 C.ar      1 <0>         0.0000
      7 C7          2.5780    0.3091    5.9973 C.2       1 <0>         0.0000
      8 C8          1.9325   -1.0133    2.6768 C.2       1 <0>         0.0000
      9 C9          0.9492    3.5395    4.1781 C.3       1 <0>         0.0000
     10 C10        -1.5671    3.4454    4.1811 C.3       1 <0>         0.0000
     11 C11         0.2195    0.8307    0.9188 C.3       1 <0>         0.0000
     12 C12         0.8590    2.2074    1.1305 C.3       1 <0>         0.0000
     13 C13         2.3649   -0.5352    1.2935 C.3       1 <0>         0.0000
     14 C14         1.1534   -0.2750    0.3710 C.3       1 <0>         0.0000
     15 C15        -0.2901    2.9668    3.5009 C.3       1 <0>         0.0000
     16 N1          1.6681    0.0834   -0.9557 N.3       1 <0>         0.0000
     17 N2          2.1084   -0.5131    4.9911 N.am      1 <0>         0.0000
     18 N3          2.3999   -0.1941    3.6876 N.am      1 <0>         0.0000
     19 O1          3.2488    1.3234    5.8225 O.2       1 <0>         0.0000
     20 O2          1.2610   -2.0296    2.8442 O.2       1 <0>         0.0000
     21 O3          3.2186   -1.5159    0.7230 O.3       1 <0>         0.0000
     22 S1         -0.3102    3.4478    1.7590 S.3       1 <0>         0.0000
     23 Cl1         3.6776    0.3376   11.0752 Cl        1 <0>         0.0000
     24 H1         -0.2168   -1.7666    9.0754 H         1 <0>         0.0000
     25 H2          0.3969   -1.1072    6.7756 H         1 <0>         0.0000
     26 H3          1.2211   -1.1366   10.9797 H         1 <0>         0.0000
     27 H4          3.9299    0.8419    8.2752 H         1 <0>         0.0000
     28 H5          0.9275    4.6347    4.1481 H         1 <0>         0.0000
     29 H6          1.0005    3.2436    5.2319 H         1 <0>         0.0000
     30 H7          1.8721    3.2151    3.6839 H         1 <0>         0.0000
     31 H8         -1.6274    4.5391    4.1512 H         1 <0>         0.0000
     32 H9         -1.5938    3.1464    5.2349 H         1 <0>         0.0000
     33 H10        -2.4642    3.0528    3.6891 H         1 <0>         0.0000
     34 H11        -0.6259    0.9652    0.2307 H         1 <0>         0.0000
     35 H12        -0.2197    0.5004    1.8688 H         1 <0>         0.0000
     36 H13         1.2423    2.5738    0.1722 H         1 <0>         0.0000
     37 H14         1.7108    2.1489    1.8142 H         1 <0>         0.0000
     38 H15         2.9484    0.3859    1.4229 H         1 <0>         0.0000
     39 H16         0.5915   -1.2082    0.2610 H         1 <0>         0.0000
     40 H17        -0.2491    1.8731    3.5416 H         1 <0>         0.0000
     41 H18         0.8845    0.1717   -1.5934 H         1 <0>         0.0000
     42 H19         2.2416   -0.6802   -1.2969 H         1 <0>         0.0000
     43 H20         1.5588   -1.3366    5.2110 H         1 <0>         0.0000
     44 H21         2.9499    0.6302    3.4697 H         1 <0>         0.0000
     45 H22         2.7041   -2.3378    0.6655 H         1 <0>         0.0000
@<TRIPOS>BOND
     1    1    2 ar
     2    1    3 ar
     3    2    5 ar
     4    3    6 ar
     5    4    5 ar
     6    4    6 ar
     7    5    7 1
     8    6   23 1
     9    7   17 am
    10    7   19 2
    11    8   13 1
    12    8   18 am
    13    8   20 2
    14    9   15 1
    15   10   15 1
    16   11   12 1
    17   11   14 1
    18   12   22 1
    19   13   14 1
    20   13   21 1
    21   14   16 1
    22   15   22 1
    23   17   18 1
    24    1   24 1
    25    2   25 1
    26    3   26 1
    27    4   27 1
    28    9   28 1
    29    9   29 1
    30    9   30 1
    31   10   31 1
    32   10   32 1
    33   10   33 1
    34   11   34 1
    35   11   35 1
    36   12   36 1
    37   12   37 1
    38   13   38 1
    39   14   39 1
    40   15   40 1
    41   16   41 1
    42   16   42 1
    43   17   43 1
    44   18   44 1
    45   21   45 1
@<TRIPOS>MOLECULE
LIGAND
   45    45     0     0     0
SMALL
NO_CHARGES

@<TRIPOS>ATOM
      1 C1          2.6734   -0.1017    9.7499 C.ar      1 <0>         0.0000
      2 C2          3.0224    0.2709    8.4519 C.ar      1 <0>         0.0000
      3 C3          1.5081   -0.8343    9.9758 C.ar      1 <0>         0.0000
      4 C4          1.0405   -0.8214    7.6056 C.ar      1 <0>         0.0000
      5 C5          2.2059   -0.0889    7.3797 C.ar      1 <0>         0.0000
      6 C6          0.6916   -1.1940    8.9037 C.ar      1 <0>         0.0000
      7 C7          2.5780    0.3091    5.9973 C.2       1 <0>         0.0000
      8 C8          1.9325   -1.0133    2.6768 C.2       1 <0>         0.0000
      9 C9          0.9492    3.5395    4.1781 C.3       1 <0>         0.0000
     10 C10        -1.5671    3.4454    4.1811 C.3       1 <0>         0.0000
     11 C11         0.2195    0.8307    0.9188 C.3       1 <0>         0.0000
     12 C12         0.8590    2.2074    1.1305 C.3       1 <0>         0.0000
     13 C13         2.3649   -0.5352    1.2935 C.3       1 <0>         0.0000
     14 C14         1.1534   -0.2750    0.3710 C.3       1 <0>         0.0000
     15 C15        -0.2901    2.9668    3.5009 C.3       1 <0>         0.0000
     16 N1          1.6681    0.0834   -0.9557 N.3       1 <0>         0.0000
     17 N2          2.1084   -0.5131    4.9911 N.am      1 <0>         0.0000
     18 N3          2.3999   -0.1941    3.6876 N.am      1 <0>         0.0000
     19 O1          3.2488    1.3234    5.8225 O.2       1 <0>         0.0000
     20 O2          1.2610   -2.0296    2.8442 O.2       1 <0>         0.0000
     21 O3          3.2186   -1.5159    0.7230 O.3       1 <0>         0.0000
     22 S1         -0.3102    3.4478    1.7590 S.3       1 <0>         0.0000
     23 Cl1        -0.7460   -2.0983    9.1831 Cl        1 <0>         0.0000
     24 H1          3.3094    0.1782   10.5845 H         1 <0>         0.0000
     25 H2          3.9329    0.8417    8.2885 H         1 <0>         0.0000
     26 H3          1.2490   -1.1176   10.9927 H         1 <0>         0.0000
     27 H4          0.4057   -1.1011    6.7672 H         1 <0>         0.0000
     28 H5          0.9275    4.6347    4.1481 H         1 <0>         0.0000
     29 H6          1.0005    3.2436    5.2319 H         1 <0>         0.0000
     30 H7          1.8721    3.2151    3.6839 H         1 <0>         0.0000
     31 H8         -1.6274    4.5391    4.1512 H         1 <0>         0.0000
     32 H9         -1.5938    3.1464    5.2349 H         1 <0>         0.0000
     33 H10        -2.4642    3.0528    3.6891 H         1 <0>         0.0000
     34 H11        -0.6259    0.9652    0.2307 H         1 <0>         0.0000
     35 H12        -0.2197    0.5004    1.8688 H         1 <0>         0.0000
     36 H13         1.2423    2.5738    0.1722 H         1 <0>         0.0000
     37 H14         1.7108    2.1489    1.8142 H         1 <0>         0.0000
     38 H15         2.9484    0.3859    1.4229 H         1 <0>         0.0000
     39 H16         0.5915   -1.2082    0.2610 H         1 <0>         0.0000
     40 H17        -0.2491    1.8731    3.5416 H         1 <0>         0.0000
     41 H18         0.8845    0.1717   -1.5934 H         1 <0>         0.0000
     42 H19         2.2416   -0.6802   -1.2969 H         1 <0>         0.0000
     43 H20         1.5588   -1.3366    5.2110 H         1 <0>         0.0000
     44 H21         2.9499    0.6302    3.4697 H         1 <0>         0.0000
     45 H22         2.7041   -2.3378    0.6655 H         1 <0>         0.0000
@<TRIPOS>BOND
     1    1    2 ar
     2    1    3 ar
     3    2    5 ar
     4    3    6 ar
     5    4    5 ar
     6    4    6 ar
     7    5    7 1
     8    6   23 1
     9    7   17 am
    10    7   19 2
    11    8   13 1
    12    8   18 am
    13    8   20 2
    14    9   15 1
    15   10   15 1
    16   11   12 1
    17   11   14 1
    18   12   22 1
    19   13   14 1
    20   13   21 1
    21   14   16 1
    22   15   22 1
    23   17   18 1
    24    1   24 1
    25    2   25 1
    26    3   26 1
    27    4   27 1
    28    9   28 1
    29    9   29 1
    30    9   30 1
    31   10   31 1
    32   10   32 1
    33   10   33 1
    34   11   34 1
    35   11   35 1
    36   12   36 1
    37   12   37 1
    38   13   38 1
    39   14   39 1
    40   15   40 1
    41   16   41 1
    42   16   42 1
    43   17   43 1
    44   18   44 1
    45   21   45 1
@<TRIPOS>MOLECULE
LIGAND
   45    45     0     0     0
SMALL
NO_CHARGES

@<TRIPOS>ATOM
      1 C1          1.7609    0.5048    9.6789 C.ar      1 <0>         0.0000
      2 C2          2.1108    0.8775    8.3811 C.ar      1 <0>         0.0000
      3 C3          1.5063   -0.8342    9.9754 C.ar      1 <0>         0.0000
      4 C4          1.9512   -1.4279    7.6761 C.ar      1 <0>         0.0000
      5 C5          2.2059   -0.0889    7.3797 C.ar      1 <0>         0.0000
      6 C6          1.6014   -1.8005    8.9740 C.ar      1 <0>         0.0000
      7 C7          2.5780    0.3091    5.9973 C.2       1 <0>         0.0000
      8 C8          1.9325   -1.0133    2.6768 C.2       1 <0>         0.0000
      9 C9          0.9492    3.5395    4.1781 C.3       1 <0>         0.0000
     10 C10        -1.5671    3.4454    4.1811 C.3       1 <0>         0.0000
     11 C11         0.2195    0.8307    0.9188 C.3       1 <0>         0.0000
     12 C12         0.8590    2.2074    1.1305 C.3       1 <0>         0.0000
     13 C13         2.3649   -0.5352    1.2935 C.3       1 <0>         0.0000
     14 C14         1.1534   -0.2750    0.3710 C.3       1 <0>         0.0000
     15 C15        -0.2901    2.9668    3.5009 C.3       1 <0>         0.0000
     16 N1          1.6681    0.0834   -0.9557 N.3       1 <0>         0.0000
     17 N2          2.1084   -0.5131    4.9911 N.am      1 <0>         0.0000
     18 N3          2.3999   -0.1941    3.6876 N.am      1 <0>         0.0000
     19 O1          3.2488    1.3234    5.8225 O.2       1 <0>         0.0000
     20 O2          1.2610   -2.0296    2.8442 O.2       1 <0>         0.0000
     21 O3          3.2186   -1.5159    0.7230 O.3       1 <0>         0.0000
     22 S1         -0.3102    3.4478    1.7590 S.3       1 <0>         0.0000
     23 Cl1         1.2874   -3.4527    9.3406 Cl        1 <0>         0.0000
     24 H1          1.6873    1.2573   10.4585 H         1 <0>         0.0000
     25 H2          2.3068    1.9240    8.1623 H         1 <0>         0.0000
     26 H3          1.2347   -1.1096   10.9912 H         1 <0>         0.0000
     27 H4          2.0267   -2.1797    6.8930 H         1 <0>         0.0000
     28 H5          0.9275    4.6347    4.1481 H         1 <0>         0.0000
     29 H6          1.0005    3.2436    5.2319 H         1 <0>         0.0000
     30 H7          1.8721    3.2151    3.6839 H         1 <0>         0.0000
     31 H8         -1.6274    4.5391    4.1512 H         1 <0>         0.0000
     32 H9         -1.5938    3.1464    5.2349 H         1 <0>         0.0000
     33 H10        -2.4642    3.0528    3.6891 H         1 <0>         0.0000
     34 H11        -0.6259    0.9652    0.2307 H         1 <0>         0.0000
     35 H12        -0.2197    0.5004    1.8688 H         1 <0>         0.0000
     36 H13         1.2423    2.5738    0.1722 H         1 <0>         0.0000
     37 H14         1.7108    2.1489    1.8142 H         1 <0>         0.0000
     38 H15         2.9484    0.3859    1.4229 H         1 <0>         0.0000
     39 H16         0.5915   -1.2082    0.2610 H         1 <0>         0.0000
     40 H17        -0.2491    1.8731    3.5416 H         1 <0>         0.0000
     41 H18         0.8845    0.1717   -1.5934 H         1 <0>         0.0000
     42 H19         2.2416   -0.6802   -1.2969 H         1 <0>         0.0000
     43 H20         1.5588   -1.3366    5.2110 H         1 <0>         0.0000
     44 H21         2.9499    0.6302    3.4697 H         1 <0>         0.0000
     45 H22         2.7041   -2.3378    0.6655 H         1 <0>         0.0000
@<TRIPOS>BOND
     1    1    2 ar
     2    1    3 ar
     3    2    5 ar
     4    3    6 ar
     5    4    5 ar
     6    4    6 ar
     7    5    7 1
     8    6   23 1
     9    7   17 am
    10    7   19 2
    11    8   13 1
    12    8   18 am
    13    8   20 2
    14    9   15 1
    15   10   15 1
    16   11   12 1
    17   11   14 1
    18   12   22 1
    19   13   14 1
    20   13   21 1
    21   14   16 1
    22   15   22 1
    23   17   18 1
    24    1   24 1
    25    2   25 1
    26    3   26 1
    27    4   27 1
    28    9   28 1
    29    9   29 1
    30    9   30 1
    31   10   31 1
    32   10   32 1
    33   10   33 1
    34   11   34 1
    35   11   35 1
    36   12   36 1
    37   12   37 1
    38   13   38 1
    39   14   39 1
    40   15   40 1
    41   16   41 1
    42   16   42 1
    43   17   43 1
    44   18   44 1
    45   21   45 1
@<TRIPOS>MOLECULE
LIGAND
   45    45     0     0     0
SMALL
NO_CHARGES

@<TRIPOS>ATOM
      1 C1         -0.1690   -1.4033    8.5959 C.ar      1 <0>         0.0000
      2 C2          0.1811   -1.0431    7.2947 C.ar      1 <0>         0.0000
      3 C3         -0.3818   -0.4171    9.5593 C.ar      1 <0>         0.0000
      4 C4          0.1059    1.2894    7.9200 C.ar      1 <0>         0.0000
      5 C5          0.3186    0.3032    6.9567 C.ar      1 <0>         0.0000
      6 C6         -0.2443    0.9292    9.2213 C.ar      1 <0>         0.0000
      7 C7          0.6923    0.6859    5.5704 C.2       1 <0>         0.0000
      8 C8          1.9325   -1.0133    2.6768 C.2       1 <0>         0.0000
      9 C9         -4.0623    0.8550    1.3177 C.3       1 <0>         0.0000
     10 C10        -3.5584   -1.5885    1.6583 C.3       1 <0>         0.0000
     11 C11         0.2195    0.8307    0.9188 C.3       1 <0>         0.0000
     12 C12        -1.0001    1.1700    0.0549 C.3       1 <0>         0.0000
     13 C13         2.3649   -0.5352    1.2935 C.3       1 <0>         0.0000
     14 C14         1.1534   -0.2750    0.3710 C.3       1 <0>         0.0000
     15 C15        -2.9754   -0.2124    1.3599 C.3       1 <0>         0.0000
     16 N1          1.6681    0.0834   -0.9557 N.3       1 <0>         0.0000
     17 N2          1.4238   -0.2520    4.8674 N.am      1 <0>         0.0000
     18 N3          1.7877    0.0290    3.5734 N.am      1 <0>         0.0000
     19 O1          0.3313    1.7736    5.1279 O.2       1 <0>         0.0000
     20 O2          1.7602   -2.2018    2.9407 O.2       1 <0>         0.0000
     21 O3          3.2186   -1.5159    0.7230 O.3       1 <0>         0.0000
     22 S1         -2.0977   -0.2515   -0.2193 S.3       1 <0>         0.0000
     23 Cl1        -0.5074    2.1455   10.4103 Cl        1 <0>         0.0000
     24 H1         -0.2763   -2.4515    8.8588 H         1 <0>         0.0000
     25 H2          0.3444   -1.8206    6.5528 H         1 <0>         0.0000
     26 H3         -0.6541   -0.7128   10.5691 H         1 <0>         0.0000
     27 H4          0.2134    2.3388    7.6534 H         1 <0>         0.0000
     28 H5         -4.8019    0.6148    0.5457 H         1 <0>         0.0000
     29 H6         -4.5966    0.9180    2.2722 H         1 <0>         0.0000
     30 H7         -3.6542    1.8453    1.0855 H         1 <0>         0.0000
     31 H8         -4.2902   -1.8663    0.8915 H         1 <0>         0.0000
     32 H9         -4.0769   -1.6012    2.6234 H         1 <0>         0.0000
     33 H10        -2.7856   -2.3656    1.6725 H         1 <0>         0.0000
     34 H11        -0.1531    0.5335    1.9082 H         1 <0>         0.0000
     35 H12         0.7975    1.7493    1.0822 H         1 <0>         0.0000
     36 H13        -0.6573    1.5138   -0.9268 H         1 <0>         0.0000
     37 H14        -1.5832    1.9849    0.4933 H         1 <0>         0.0000
     38 H15         2.9484    0.3859    1.4229 H         1 <0>         0.0000
     39 H16         0.5915   -1.2082    0.2610 H         1 <0>         0.0000
     40 H17        -2.2476    0.0460    2.1366 H         1 <0>         0.0000
     41 H18         0.8845    0.1717   -1.5934 H         1 <0>         0.0000
     42 H19         2.2416   -0.6802   -1.2969 H         1 <0>         0.0000
     43 H20         1.6871   -1.1312    5.2989 H         1 <0>         0.0000
     44 H21         1.9478    0.9869    3.2798 H         1 <0>         0.0000
     45 H22         2.7041   -2.3378    0.6655 H         1 <0>         0.0000
@<TRIPOS>BOND
     1    1    2 ar
     2    1    3 ar
     3    2    5 ar
     4    3    6 ar
     5    4    5 ar
     6    4    6 ar
     7    5    7 1
     8    6   23 1
     9    7   17 am
    10    7   19 2
    11    8   13 1
    12    8   18 am
    13    8   20 2
    14    9   15 1
    15   10   15 1
    16   11   12 1
    17   11   14 1
    18   12   22 1
    19   13   14 1
    20   13   21 1
    21   14   16 1
    22   15   22 1
    23   17   18 1
    24    1   24 1
    25    2   25 1
    26    3   26 1
    27    4   27 1
    28    9   28 1
    29    9   29 1
    30    9   30 1
    31   10   31 1
    32   10   32 1
    33   10   33 1
    34   11   34 1
    35   11   35 1
    36   12   36 1
    37   12   37 1
    38   13   38 1
    39   14   39 1
    40   15   40 1
    41   16   41 1
    42   16   42 1
    43   17   43 1
    44   18   44 1
    45   21   45 1
@<TRIPOS>MOLECULE
LIGAND
   45    45     0     0     0
SMALL
NO_CHARGES

@<TRIPOS>ATOM
      1 C1         -0.2456    0.9322    9.2201 C.ar      1 <0>         0.0000
      2 C2          0.1058    1.2906    7.9187 C.ar      1 <0>         0.0000
      3 C3         -0.3840   -0.4137    9.5596 C.ar      1 <0>         0.0000
      4 C4          0.1802   -1.0427    7.2962 C.ar      1 <0>         0.0000
      5 C5          0.3186    0.3032    6.9567 C.ar      1 <0>         0.0000
      6 C6         -0.1712   -1.4011    8.5976 C.ar      1 <0>         0.0000
      7 C7          0.6923    0.6859    5.5704 C.2       1 <0>         0.0000
      8 C8          1.9325   -1.0133    2.6768 C.2       1 <0>         0.0000
      9 C9         -4.0623    0.8550    1.3177 C.3       1 <0>         0.0000
     10 C10        -3.5584   -1.5885    1.6583 C.3       1 <0>         0.0000
     11 C11         0.2195    0.8307    0.9188 C.3       1 <0>         0.0000
     12 C12        -1.0001    1.1700    0.0549 C.3       1 <0>         0.0000
     13 C13         2.3649   -0.5352    1.2935 C.3       1 <0>         0.0000
     14 C14         1.1534   -0.2750    0.3710 C.3       1 <0>         0.0000
     15 C15        -2.9754   -0.2124    1.3599 C.3       1 <0>         0.0000
     16 N1          1.6681    0.0834   -0.9557 N.3       1 <0>         0.0000
     17 N2          1.4238   -0.2520    4.8674 N.am      1 <0>         0.0000
     18 N3          1.7877    0.0290    3.5734 N.am      1 <0>         0.0000
     19 O1          0.3313    1.7736    5.1279 O.2       1 <0>         0.0000
     20 O2          1.7602   -2.2018    2.9407 O.2       1 <0>         0.0000
     21 O3          3.2186   -1.5159    0.7230 O.3       1 <0>         0.0000
     22 S1         -2.0977   -0.2515   -0.2193 S.3       1 <0>         0.0000
     23 Cl1        -0.3417   -3.0616    9.0174 Cl        1 <0>         0.0000
     24 H1         -0.4110    1.7011    9.9690 H         1 <0>         0.0000
     25 H2          0.2105    2.3426    7.6662 H         1 <0>         0.0000
     26 H3         -0.6583   -0.6779   10.5776 H         1 <0>         0.0000
     27 H4          0.3474   -1.8109    6.5438 H         1 <0>         0.0000
     28 H5         -4.8019    0.6148    0.5457 H         1 <0>         0.0000
     29 H6         -4.5966    0.9180    2.2722 H         1 <0>         0.0000
     30 H7         -3.6542    1.8453    1.0855 H         1 <0>         0.0000
     31 H8         -4.2902   -1.8663    0.8915 H         1 <0>         0.0000
     32 H9         -4.0769   -1.6012    2.6234 H         1 <0>         0.0000
     33 H10        -2.7856   -2.3656    1.6725 H         1 <0>         0.0000
     34 H11        -0.1531    0.5335    1.9082 H         1 <0>         0.0000
     35 H12         0.7975    1.7493    1.0822 H         1 <0>         0.0000
     36 H13        -0.6573    1.5138   -0.9268 H         1 <0>         0.0000
     37 H14        -1.5832    1.9849    0.4933 H         1 <0>         0.0000
     38 H15         2.9484    0.3859    1.4229 H         1 <0>         0.0000
     39 H16         0.5915   -1.2082    0.2610 H         1 <0>         0.0000
     40 H17        -2.2476    0.0460    2.1366 H         1 <0>         0.0000
     41 H18         0.8845    0.1717   -1.5934 H         1 <0>         0.0000
     42 H19         2.2416   -0.6802   -1.2969 H         1 <0>         0.0000
     43 H20         1.6871   -1.1312    5.2989 H         1 <0>         0.0000
     44 H21         1.9478    0.9869    3.2798 H         1 <0>         0.0000
     45 H22         2.7041   -2.3378    0.6655 H         1 <0>         0.0000
@<TRIPOS>BOND
     1    1    2 ar
     2    1    3 ar
     3    2    5 ar
     4    3    6 ar
     5    4    5 ar
     6    4    6 ar
     7    5    7 1
     8    6   23 1
     9    7   17 am
    10    7   19 2
    11    8   13 1
    12    8   18 am
    13    8   20 2
    14    9   15 1
    15   10   15 1
    16   11   12 1
    17   11   14 1
    18   12   22 1
    19   13   14 1
    20   13   21 1
    21   14   16 1
    22   15   22 1
    23   17   18 1
    24    1   24 1
    25    2   25 1
    26    3   26 1
    27    4   27 1
    28    9   28 1
    29    9   29 1
    30    9   30 1
    31   10   31 1
    32   10   32 1
    33   10   33 1
    34   11   34 1
    35   11   35 1
    36   12   36 1
    37   12   37 1
    38   13   38 1
    39   14   39 1
    40   15   40 1
    41   16   41 1
    42   16   42 1
    43   17   43 1
    44   18   44 1
    45   21   45 1
@<TRIPOS>MOLECULE
LIGAND
   45    45     0     0     0
SMALL
NO_CHARGES

@<TRIPOS>ATOM
      1 C1          1.4828   -0.9664    9.1345 C.ar      1 <0>         0.0000
      2 C2          1.8325   -0.6995    7.8109 C.ar      1 <0>         0.0000
      3 C3          1.9106   -2.1455    9.7447 C.ar      1 <0>         0.0000
      4 C4          3.0378   -2.7908    7.7076 C.ar      1 <0>         0.0000
      5 C5          2.6100   -1.6117    7.0974 C.ar      1 <0>         0.0000
      6 C6          2.6881   -3.0577    9.0313 C.ar      1 <0>         0.0000
      7 C7          2.9815   -1.3268    5.6872 C.2       1 <0>         0.0000
      8 C8          1.9325   -1.0133    2.6768 C.2       1 <0>         0.0000
      9 C9          0.9492    3.5395    4.1781 C.3       1 <0>         0.0000
     10 C10        -1.5671    3.4454    4.1811 C.3       1 <0>         0.0000
     11 C11         0.2195    0.8307    0.9188 C.3       1 <0>         0.0000
     12 C12         0.8590    2.2074    1.1305 C.3       1 <0>         0.0000
     13 C13         2.3649   -0.5352    1.2935 C.3       1 <0>         0.0000
     14 C14         1.1534   -0.2750    0.3710 C.3       1 <0>         0.0000
     15 C15        -0.2901    2.9668    3.5009 C.3       1 <0>         0.0000
     16 N1          1.6681    0.0834   -0.9557 N.3       1 <0>         0.0000
     17 N2          2.1084   -0.5131    4.9911 N.am      1 <0>         0.0000
     18 N3          2.3999   -0.1941    3.6876 N.am      1 <0>         0.0000
     19 O1          4.0191   -1.8000    5.2304 O.2       1 <0>         0.0000
     20 O2          1.2610   -2.0296    2.8442 O.2       1 <0>         0.0000
     21 O3          3.2186   -1.5159    0.7230 O.3       1 <0>         0.0000
     22 S1         -0.3102    3.4478    1.7590 S.3       1 <0>         0.0000
     23 Cl1         3.2160   -4.5123    9.7850 Cl        1 <0>         0.0000
     24 H1          0.8778   -0.2559    9.6899 H         1 <0>         0.0000
     25 H2          1.4931    0.2227    7.3462 H         1 <0>         0.0000
     26 H3          1.6303   -2.3400   10.7768 H         1 <0>         0.0000
     27 H4          3.6446   -3.5004    7.1487 H         1 <0>         0.0000
     28 H5          0.9275    4.6347    4.1481 H         1 <0>         0.0000
     29 H6          1.0005    3.2436    5.2319 H         1 <0>         0.0000
     30 H7          1.8721    3.2151    3.6839 H         1 <0>         0.0000
     31 H8         -1.6274    4.5391    4.1512 H         1 <0>         0.0000
     32 H9         -1.5938    3.1464    5.2349 H         1 <0>         0.0000
     33 H10        -2.4642    3.0528    3.6891 H         1 <0>         0.0000
     34 H11        -0.6259    0.9652    0.2307 H         1 <0>         0.0000
     35 H12        -0.2197    0.5004    1.8688 H         1 <0>         0.0000
     36 H13         1.2423    2.5738    0.1722 H         1 <0>         0.0000
     37 H14         1.7108    2.1489    1.8142 H         1 <0>         0.0000
     38 H15         2.9484    0.3859    1.4229 H         1 <0>         0.0000
     39 H16         0.5915   -1.2082    0.2610 H         1 <0>         0.0000
     40 H17        -0.2491    1.8731    3.5416 H         1 <0>         0.0000
     41 H18         0.8845    0.1717   -1.5934 H         1 <0>         0.0000
     42 H19         2.2416   -0.6802   -1.2969 H         1 <0>         0.0000
     43 H20         1.2682   -0.1582    5.4344 H         1 <0>         0.0000
     44 H21         2.9499    0.6302    3.4697 H         1 <0>         0.0000
     45 H22         2.7041   -2.3378    0.6655 H         1 <0>         0.0000
@<TRIPOS>BOND
     1    1    2 ar
     2    1    3 ar
     3    2    5 ar
     4    3    6 ar
     5    4    5 ar
     6    4    6 ar
     7    5    7 1
     8    6   23 1
     9    7   17 am
    10    7   19 2
    11    8   13 1
    12    8   18 am
    13    8   20 2
    14    9   15 1
    15   10   15 1
    16   11   12 1
    17   11   14 1
    18   12   22 1
    19   13   14 1
    20   13   21 1
    21   14   16 1
    22   15   22 1
    23   17   18 1
    24    1   24 1
    25    2   25 1
    26    3   26 1
    27    4   27 1
    28    9   28 1
    29    9   29 1
    30    9   30 1
    31   10   31 1
    32   10   32 1
    33   10   33 1
    34   11   34 1
    35   11   35 1
    36   12   36 1
    37   12   37 1
    38   13   38 1
    39   14   39 1
    40   15   40 1
    41   16   41 1
    42   16   42 1
    43   17   43 1
    44   18   44 1
    45   21   45 1
@<TRIPOS>MOLECULE
LIGAND
   45    45     0     0     0
SMALL
NO_CHARGES

@<TRIPOS>ATOM
      1 C1          2.6912   -3.0589    9.0302 C.ar      1 <0>         0.0000
      2 C2          3.0390   -2.7910    7.7063 C.ar      1 <0>         0.0000
      3 C3          1.9142   -2.1475    9.7453 C.ar      1 <0>         0.0000
      4 C4          1.8330   -0.7002    7.8125 C.ar      1 <0>         0.0000
      5 C5          2.6100   -1.6117    7.0974 C.ar      1 <0>         0.0000
      6 C6          1.4852   -0.9681    9.1364 C.ar      1 <0>         0.0000
      7 C7          2.9815   -1.3268    5.6872 C.2       1 <0>         0.0000
      8 C8          1.9325   -1.0133    2.6768 C.2       1 <0>         0.0000
      9 C9          0.9492    3.5395    4.1781 C.3       1 <0>         0.0000
     10 C10        -1.5671    3.4454    4.1811 C.3       1 <0>         0.0000
     11 C11         0.2195    0.8307    0.9188 C.3       1 <0>         0.0000
     12 C12         0.8590    2.2074    1.1305 C.3       1 <0>         0.0000
     13 C13         2.3649   -0.5352    1.2935 C.3       1 <0>         0.0000
     14 C14         1.1534   -0.2750    0.3710 C.3       1 <0>         0.0000
     15 C15        -0.2901    2.9668    3.5009 C.3       1 <0>         0.0000
     16 N1          1.6681    0.0834   -0.9557 N.3       1 <0>         0.0000
     17 N2          2.1084   -0.5131    4.9911 N.am      1 <0>         0.0000
     18 N3          2.3999   -0.1941    3.6876 N.am      1 <0>         0.0000
     19 O1          4.0191   -1.8000    5.2304 O.2       1 <0>         0.0000
     20 O2          1.2610   -2.0296    2.8442 O.2       1 <0>         0.0000
     21 O3          3.2186   -1.5159    0.7230 O.3       1 <0>         0.0000
     22 S1         -0.3102    3.4478    1.7590 S.3       1 <0>         0.0000
     23 Cl1         0.5261    0.1558   10.0192 Cl        1 <0>         0.0000
     24 H1          3.0251   -3.9773    9.5040 H         1 <0>         0.0000
     25 H2          3.6450   -3.5089    7.1594 H         1 <0>         0.0000
     26 H3          1.6510   -2.3697   10.7762 H         1 <0>         0.0000
     27 H4          1.4993    0.2187    7.3347 H         1 <0>         0.0000
     28 H5          0.9275    4.6347    4.1481 H         1 <0>         0.0000
     29 H6          1.0005    3.2436    5.2319 H         1 <0>         0.0000
     30 H7          1.8721    3.2151    3.6839 H         1 <0>         0.0000
     31 H8         -1.6274    4.5391    4.1512 H         1 <0>         0.0000
     32 H9         -1.5938    3.1464    5.2349 H         1 <0>         0.0000
     33 H10        -2.4642    3.0528    3.6891 H         1 <0>         0.0000
     34 H11        -0.6259    0.9652    0.2307 H         1 <0>         0.0000
     35 H12        -0.2197    0.5004    1.8688 H         1 <0>         0.0000
     36 H13         1.2423    2.5738    0.1722 H         1 <0>         0.0000
     37 H14         1.7108    2.1489    1.8142 H         1 <0>         0.0000
     38 H15         2.9484    0.3859    1.4229 H         1 <0>         0.0000
     39 H16         0.5915   -1.2082    0.2610 H         1 <0>         0.0000
     40 H17        -0.2491    1.8731    3.5416 H         1 <0>         0.0000
     41 H18         0.8845    0.1717   -1.5934 H         1 <0>         0.0000
     42 H19         2.2416   -0.6802   -1.2969 H         1 <0>         0.0000
     43 H20         1.2682   -0.1582    5.4344 H         1 <0>         0.0000
     44 H21         2.9499    0.6302    3.4697 H         1 <0>         0.0000
     45 H22         2.7041   -2.3378    0.6655 H         1 <0>         0.0000
@<TRIPOS>BOND
     1    1    2 ar
     2    1    3 ar
     3    2    5 ar
     4    3    6 ar
     5    4    5 ar
     6    4    6 ar
     7    5    7 1
     8    6   23 1
     9    7   17 am
    10    7   19 2
    11    8   13 1
    12    8   18 am
    13    8   20 2
    14    9   15 1
    15   10   15 1
    16   11   12 1
    17   11   14 1
    18   12   22 1
    19   13   14 1
    20   13   21 1
    21   14   16 1
    22   15   22 1
    23   17   18 1
    24    1   24 1
    25    2   25 1
    26    3   26 1
    27    4   27 1
    28    9   28 1
    29    9   29 1
    30    9   30 1
    31   10   31 1
    32   10   32 1
    33   10   33 1
    34   11   34 1
    35   11   35 1
    36   12   36 1
    37   12   37 1
    38   13   38 1
    39   14   39 1
    40   15   40 1
    41   16   41 1
    42   16   42 1
    43   17   43 1
    44   18   44 1
    45   21   45 1
@<TRIPOS>MOLECULE
LIGAND
   45    45     0     0     0
SMALL
NO_CHARGES

@<TRIPOS>ATOM
      1 C1          0.9205   -1.8510    8.8077 C.ar      1 <0>         0.0000
      2 C2          1.2701   -1.5831    7.4842 C.ar      1 <0>         0.0000
      3 C3          1.9107   -2.1474    9.7444 C.ar      1 <0>         0.0000
      4 C4          3.6002   -1.9080    8.0341 C.ar      1 <0>         0.0000
      5 C5          2.6100   -1.6117    7.0974 C.ar      1 <0>         0.0000
      6 C6          3.2505   -2.1759    9.3576 C.ar      1 <0>         0.0000
      7 C7          2.9815   -1.3268    5.6872 C.2       1 <0>         0.0000
      8 C8          1.9325   -1.0133    2.6768 C.2       1 <0>         0.0000
      9 C9          0.9492    3.5395    4.1781 C.3       1 <0>         0.0000
     10 C10        -1.5671    3.4454    4.1811 C.3       1 <0>         0.0000
     11 C11         0.2195    0.8307    0.9188 C.3       1 <0>         0.0000
     12 C12         0.8590    2.2074    1.1305 C.3       1 <0>         0.0000
     13 C13         2.3649   -0.5352    1.2935 C.3       1 <0>         0.0000
     14 C14         1.1534   -0.2750    0.3710 C.3       1 <0>         0.0000
     15 C15        -0.2901    2.9668    3.5009 C.3       1 <0>         0.0000
     16 N1          1.6681    0.0834   -0.9557 N.3       1 <0>         0.0000
     17 N2          2.1084   -0.5131    4.9911 N.am      1 <0>         0.0000
     18 N3          2.3999   -0.1941    3.6876 N.am      1 <0>         0.0000
     19 O1          4.0191   -1.8000    5.2304 O.2       1 <0>         0.0000
     20 O2          1.2610   -2.0296    2.8442 O.2       1 <0>         0.0000
     21 O3          3.2186   -1.5159    0.7230 O.3       1 <0>         0.0000
     22 S1         -0.3102    3.4478    1.7590 S.3       1 <0>         0.0000
     23 Cl1         4.4719   -2.5412   10.5140 Cl        1 <0>         0.0000
     24 H1         -0.1227   -1.8284    9.1087 H         1 <0>         0.0000
     25 H2          0.4895   -1.3536    6.7634 H         1 <0>         0.0000
     26 H3          1.6231   -2.3540   10.7720 H         1 <0>         0.0000
     27 H4          4.6447   -1.9291    7.7296 H         1 <0>         0.0000
     28 H5          0.9275    4.6347    4.1481 H         1 <0>         0.0000
     29 H6          1.0005    3.2436    5.2319 H         1 <0>         0.0000
     30 H7          1.8721    3.2151    3.6839 H         1 <0>         0.0000
     31 H8         -1.6274    4.5391    4.1512 H         1 <0>         0.0000
     32 H9         -1.5938    3.1464    5.2349 H         1 <0>         0.0000
     33 H10        -2.4642    3.0528    3.6891 H         1 <0>         0.0000
     34 H11        -0.6259    0.9652    0.2307 H         1 <0>         0.0000
     35 H12        -0.2197    0.5004    1.8688 H         1 <0>         0.0000
     36 H13         1.2423    2.5738    0.1722 H         1 <0>         0.0000
     37 H14         1.7108    2.1489    1.8142 H         1 <0>         0.0000
     38 H15         2.9484    0.3859    1.4229 H         1 <0>         0.0000
     39 H16         0.5915   -1.2082    0.2610 H         1 <0>         0.0000
     40 H17        -0.2491    1.8731    3.5416 H         1 <0>         0.0000
     41 H18         0.8845    0.1717   -1.5934 H         1 <0>         0.0000
     42 H19         2.2416   -0.6802   -1.2969 H         1 <0>         0.0000
     43 H20         1.2682   -0.1582    5.4344 H         1 <0>         0.0000
     44 H21         2.9499    0.6302    3.4697 H         1 <0>         0.0000
     45 H22         2.7041   -2.3378    0.6655 H         1 <0>         0.0000
@<TRIPOS>BOND
     1    1    2 ar
     2    1    3 ar
     3    2    5 ar
     4    3    6 ar
     5    4    5 ar
     6    4    6 ar
     7    5    7 1
     8    6   23 1
     9    7   17 am
    10    7   19 2
    11    8   13 1
    12    8   18 am
    13    8   20 2
    14    9   15 1
    15   10   15 1
    16   11   12 1
    17   11   14 1
    18   12   22 1
    19   13   14 1
    20   13   21 1
    21   14   16 1
    22   15   22 1
    23   17   18 1
    24    1   24 1
    25    2   25 1
    26    3   26 1
    27    4   27 1
    28    9   28 1
    29    9   29 1
    30    9   30 1
    31   10   31 1
    32   10   32 1
    33   10   33 1
    34   11   34 1
    35   11   35 1
    36   12   36 1
    37   12   37 1
    38   13   38 1
    39   14   39 1
    40   15   40 1
    41   16   41 1
    42   16   42 1
    43   17   43 1
    44   18   44 1
    45   21   45 1
@<TRIPOS>MOLECULE
LIGAND
   45    45     0     0     0
SMALL
NO_CHARGES

@<TRIPOS>ATOM
      1 C1          0.3537   -1.6987    8.6788 C.ar      1 <0>         0.0000
      2 C2          0.6500   -1.3890    7.3514 C.ar      1 <0>         0.0000
      3 C3         -0.8291   -1.2362    9.2556 C.ar      1 <0>         0.0000
      4 C4         -1.4194   -0.1541    7.1777 C.ar      1 <0>         0.0000
      5 C5         -0.2366   -0.6167    6.6009 C.ar      1 <0>         0.0000
      6 C6         -1.7156   -0.4639    8.5051 C.ar      1 <0>         0.0000
      7 C7          0.0801   -0.2867    5.1871 C.2       1 <0>         0.0000
      8 C8          1.9325   -1.0133    2.6768 C.2       1 <0>         0.0000
      9 C9         -2.8396    0.6809   -2.6742 C.3       1 <0>         0.0000
     10 C10        -4.6560   -0.1960   -1.1670 C.3       1 <0>         0.0000
     11 C11         0.2195    0.8307    0.9188 C.3       1 <0>         0.0000
     12 C12        -1.0001    1.1700    0.0549 C.3       1 <0>         0.0000
     13 C13         2.3649   -0.5352    1.2935 C.3       1 <0>         0.0000
     14 C14         1.1534   -0.2750    0.3710 C.3       1 <0>         0.0000
     15 C15        -3.3416    0.5718   -1.2395 C.3       1 <0>         0.0000
     16 N1          1.6681    0.0834   -0.9557 N.3       1 <0>         0.0000
     17 N2          1.4238   -0.2520    4.8674 N.am      1 <0>         0.0000
     18 N3          1.7877    0.0290    3.5734 N.am      1 <0>         0.0000
     19 O1         -0.8375   -0.0833    4.3961 O.2       1 <0>         0.0000
     20 O2          1.7602   -2.2018    2.9407 O.2       1 <0>         0.0000
     21 O3          3.2186   -1.5159    0.7230 O.3       1 <0>         0.0000
     22 S1         -2.0977   -0.2515   -0.2193 S.3       1 <0>         0.0000
     23 Cl1        -3.1752    0.1061    9.2174 Cl        1 <0>         0.0000
     24 H1          1.0439   -2.3003    9.2628 H         1 <0>         0.0000
     25 H2          1.5748   -1.7550    6.9130 H         1 <0>         0.0000
     26 H3         -1.0465   -1.4855   10.2910 H         1 <0>         0.0000
     27 H4         -2.1094    0.4477    6.5897 H         1 <0>         0.0000
     28 H5         -2.6847   -0.3167   -3.1002 H         1 <0>         0.0000
     29 H6         -3.5648    1.1984   -3.3121 H         1 <0>         0.0000
     30 H7         -1.8850    1.2160   -2.7338 H         1 <0>         0.0000
     31 H8         -4.5291   -1.2071   -1.5698 H         1 <0>         0.0000
     32 H9         -5.4375    0.2943   -1.7580 H         1 <0>         0.0000
     33 H10        -5.0153   -0.2952   -0.1363 H         1 <0>         0.0000
     34 H11        -0.1531    0.5335    1.9082 H         1 <0>         0.0000
     35 H12         0.7975    1.7493    1.0822 H         1 <0>         0.0000
     36 H13        -0.6573    1.5138   -0.9268 H         1 <0>         0.0000
     37 H14        -1.5832    1.9849    0.4933 H         1 <0>         0.0000
     38 H15         2.9484    0.3859    1.4229 H         1 <0>         0.0000
     39 H16         0.5915   -1.2082    0.2610 H         1 <0>         0.0000
     40 H17        -3.4899    1.5778   -0.8328 H         1 <0>         0.0000
     41 H18         0.8845    0.1717   -1.5934 H         1 <0>         0.0000
     42 H19         2.2416   -0.6802   -1.2969 H         1 <0>         0.0000
     43 H20         2.1281   -0.4306    5.5750 H         1 <0>         0.0000
     44 H21         1.9478    0.9869    3.2798 H         1 <0>         0.0000
     45 H22         2.7041   -2.3378    0.6655 H         1 <0>         0.0000
@<TRIPOS>BOND
     1    1    2 ar
     2    1    3 ar
     3    2    5 ar
     4    3    6 ar
     5    4    5 ar
     6    4    6 ar
     7    5    7 1
     8    6   23 1
     9    7   17 am
    10    7   19 2
    11    8   13 1
    12    8   18 am
    13    8   20 2
    14    9   15 1
    15   10   15 1
    16   11   12 1
    17   11   14 1
    18   12   22 1
    19   13   14 1
    20   13   21 1
    21   14   16 1
    22   15   22 1
    23   17   18 1
    24    1   24 1
    25    2   25 1
    26    3   26 1
    27    4   27 1
    28    9   28 1
    29    9   29 1
    30    9   30 1
    31   10   31 1
    32   10   32 1
    33   10   33 1
    34   11   34 1
    35   11   35 1
    36   12   36 1
    37   12   37 1
    38   13   38 1
    39   14   39 1
    40   15   40 1
    41   16   41 1
    42   16   42 1
    43   17   43 1
    44   18   44 1
    45   21   45 1
@<TRIPOS>MOLECULE
LIGAND
   45    45     0     0     0
SMALL
NO_CHARGES

@<TRIPOS>ATOM
      1 C1          0.2436   -1.5853    8.6879 C.ar      1 <0>         0.0000
      2 C2          0.6848   -1.3243    7.3907 C.ar      1 <0>         0.0000
      3 C3          1.0636   -1.2882    9.7766 C.ar      1 <0>         0.0000
      4 C4          2.7661   -0.4692    8.2707 C.ar      1 <0>         0.0000
      5 C5          1.9460   -0.7663    7.1821 C.ar      1 <0>         0.0000
      6 C6          2.3248   -0.7302    9.5679 C.ar      1 <0>         0.0000
      7 C7          2.4155   -0.4891    5.7998 C.2       1 <0>         0.0000
      8 C8          1.9325   -1.0133    2.6768 C.2       1 <0>         0.0000
      9 C9         -4.0623    0.8550    1.3177 C.3       1 <0>         0.0000
     10 C10        -3.5584   -1.5885    1.6583 C.3       1 <0>         0.0000
     11 C11         0.2195    0.8307    0.9188 C.3       1 <0>         0.0000
     12 C12        -1.0001    1.1700    0.0549 C.3       1 <0>         0.0000
     13 C13         2.3649   -0.5352    1.2935 C.3       1 <0>         0.0000
     14 C14         1.1534   -0.2750    0.3710 C.3       1 <0>         0.0000
     15 C15        -2.9754   -0.2124    1.3599 C.3       1 <0>         0.0000
     16 N1          1.6681    0.0834   -0.9557 N.3       1 <0>         0.0000
     17 N2          1.4238   -0.2520    4.8674 N.am      1 <0>         0.0000
     18 N3          1.7877    0.0290    3.5734 N.am      1 <0>         0.0000
     19 O1          3.6213   -0.4699    5.5658 O.2       1 <0>         0.0000
     20 O2          1.7602   -2.2018    2.9407 O.2       1 <0>         0.0000
     21 O3          3.2186   -1.5159    0.7230 O.3       1 <0>         0.0000
     22 S1         -2.0977   -0.2515   -0.2193 S.3       1 <0>         0.0000
     23 Cl1         3.3359   -0.3635   10.9117 Cl        1 <0>         0.0000
     24 H1         -0.7386   -2.0195    8.8502 H         1 <0>         0.0000
     25 H2          0.0368   -1.5602    6.5505 H         1 <0>         0.0000
     26 H3          0.7063   -1.4972   10.7816 H         1 <0>         0.0000
     27 H4          3.7493   -0.0335    8.1049 H         1 <0>         0.0000
     28 H5         -4.8019    0.6148    0.5457 H         1 <0>         0.0000
     29 H6         -4.5966    0.9180    2.2722 H         1 <0>         0.0000
     30 H7         -3.6542    1.8453    1.0855 H         1 <0>         0.0000
     31 H8         -4.2902   -1.8663    0.8915 H         1 <0>         0.0000
     32 H9         -4.0769   -1.6012    2.6234 H         1 <0>         0.0000
     33 H10        -2.7856   -2.3656    1.6725 H         1 <0>         0.0000
     34 H11        -0.1531    0.5335    1.9082 H         1 <0>         0.0000
     35 H12         0.7975    1.7493    1.0822 H         1 <0>         0.0000
     36 H13        -0.6573    1.5138   -0.9268 H         1 <0>         0.0000
     37 H14        -1.5832    1.9849    0.4933 H         1 <0>         0.0000
     38 H15         2.9484    0.3859    1.4229 H         1 <0>         0.0000
     39 H16         0.5915   -1.2082    0.2610 H         1 <0>         0.0000
     40 H17        -2.2476    0.0460    2.1366 H         1 <0>         0.0000
     41 H18         0.8845    0.1717   -1.5934 H         1 <0>         0.0000
     42 H19         2.2416   -0.6802   -1.2969 H         1 <0>         0.0000
     43 H20         0.4458   -0.2847    5.1337 H         1 <0>         0.0000
     44 H21         1.9478    0.9869    3.2798 H         1 <0>         0.0000
     45 H22         2.7041   -2.3378    0.6655 H         1 <0>         0.0000
@<TRIPOS>BOND
     1    1    2 ar
     2    1    3 ar
     3    2    5 ar
     4    3    6 ar
     5    4    5 ar
     6    4    6 ar
     7    5    7 1
     8    6   23 1
     9    7   17 am
    10    7   19 2
    11    8   13 1
    12    8   18 am
    13    8   20 2
    14    9   15 1
    15   10   15 1
    16   11   12 1
    17   11   14 1
    18   12   22 1
    19   13   14 1
    20   13   21 1
    21   14   16 1
    22   15   22 1
    23   17   18 1
    24    1   24 1
    25    2   25 1
    26    3   26 1
    27    4   27 1
    28    9   28 1
    29    9   29 1
    30    9   30 1
    31   10   31 1
    32   10   32 1
    33   10   33 1
    34   11   34 1
    35   11   35 1
    36   12   36 1
    37   12   37 1
    38   13   38 1
    39   14   39 1
    40   15   40 1
    41   16   41 1
    42   16   42 1
    43   17   43 1
    44   18   44 1
    45   21   45 1
@<TRIPOS>MOLECULE
LIGAND
   45    45     0     0     0
SMALL
NO_CHARGES

@<TRIPOS>ATOM
      1 C1          3.2536   -2.1742    9.3571 C.ar      1 <0>         0.0000
      2 C2          3.6014   -1.9073    8.0329 C.ar      1 <0>         0.0000
      3 C3          1.9142   -2.1456    9.7457 C.ar      1 <0>         0.0000
      4 C4          1.2706   -1.5830    7.4860 C.ar      1 <0>         0.0000
      5 C5          2.6100   -1.6117    7.0974 C.ar      1 <0>         0.0000
      6 C6          0.9227   -1.8500    8.8101 C.ar      1 <0>         0.0000
      7 C7          2.9815   -1.3268    5.6872 C.2       1 <0>         0.0000
      8 C8          1.9325   -1.0133    2.6768 C.2       1 <0>         0.0000
      9 C9          0.9492    3.5395    4.1781 C.3       1 <0>         0.0000
     10 C10        -1.5671    3.4454    4.1811 C.3       1 <0>         0.0000
     11 C11         0.2195    0.8307    0.9188 C.3       1 <0>         0.0000
     12 C12         0.8590    2.2074    1.1305 C.3       1 <0>         0.0000
     13 C13         2.3649   -0.5352    1.2935 C.3       1 <0>         0.0000
     14 C14         1.1534   -0.2750    0.3710 C.3       1 <0>         0.0000
     15 C15        -0.2901    2.9668    3.5009 C.3       1 <0>         0.0000
     16 N1          1.6681    0.0834   -0.9557 N.3       1 <0>         0.0000
     17 N2          2.1084   -0.5131    4.9911 N.am      1 <0>         0.0000
     18 N3          2.3999   -0.1941    3.6876 N.am      1 <0>         0.0000
     19 O1          4.0191   -1.8000    5.2304 O.2       1 <0>         0.0000
     20 O2          1.2610   -2.0296    2.8442 O.2       1 <0>         0.0000
     21 O3          3.2186   -1.5159    0.7230 O.3       1 <0>         0.0000
     22 S1         -0.3102    3.4478    1.7590 S.3       1 <0>         0.0000
     23 Cl1        -0.7298   -1.8153    9.2902 Cl        1 <0>         0.0000
     24 H1          4.0256   -2.4047   10.0852 H         1 <0>         0.0000
     25 H2          4.6485   -1.9325    7.7422 H         1 <0>         0.0000
     26 H3          1.6582   -2.3557   10.7809 H         1 <0>         0.0000
     27 H4          0.4992   -1.3526    6.7539 H         1 <0>         0.0000
     28 H5          0.9275    4.6347    4.1481 H         1 <0>         0.0000
     29 H6          1.0005    3.2436    5.2319 H         1 <0>         0.0000
     30 H7          1.8721    3.2151    3.6839 H         1 <0>         0.0000
     31 H8         -1.6274    4.5391    4.1512 H         1 <0>         0.0000
     32 H9         -1.5938    3.1464    5.2349 H         1 <0>         0.0000
     33 H10        -2.4642    3.0528    3.6891 H         1 <0>         0.0000
     34 H11        -0.6259    0.9652    0.2307 H         1 <0>         0.0000
     35 H12        -0.2197    0.5004    1.8688 H         1 <0>         0.0000
     36 H13         1.2423    2.5738    0.1722 H         1 <0>         0.0000
     37 H14         1.7108    2.1489    1.8142 H         1 <0>         0.0000
     38 H15         2.9484    0.3859    1.4229 H         1 <0>         0.0000
     39 H16         0.5915   -1.2082    0.2610 H         1 <0>         0.0000
     40 H17        -0.2491    1.8731    3.5416 H         1 <0>         0.0000
     41 H18         0.8845    0.1717   -1.5934 H         1 <0>         0.0000
     42 H19         2.2416   -0.6802   -1.2969 H         1 <0>         0.0000
     43 H20         1.2682   -0.1582    5.4344 H         1 <0>         0.0000
     44 H21         2.9499    0.6302    3.4697 H         1 <0>         0.0000
     45 H22         2.7041   -2.3378    0.6655 H         1 <0>         0.0000
@<TRIPOS>BOND
     1    1    2 ar
     2    1    3 ar
     3    2    5 ar
     4    3    6 ar
     5    4    5 ar
     6    4    6 ar
     7    5    7 1
     8    6   23 1
     9    7   17 am
    10    7   19 2
    11    8   13 1
    12    8   18 am
    13    8   20 2
    14    9   15 1
    15   10   15 1
    16   11   12 1
    17   11   14 1
    18   12   22 1
    19   13   14 1
    20   13   21 1
    21   14   16 1
    22   15   22 1
    23   17   18 1
    24    1   24 1
    25    2   25 1
    26    3   26 1
    27    4   27 1
    28    9   28 1
    29    9   29 1
    30    9   30 1
    31   10   31 1
    32   10   32 1
    33   10   33 1
    34   11   34 1
    35   11   35 1
    36   12   36 1
    37   12   37 1
    38   13   38 1
    39   14   39 1
    40   15   40 1
    41   16   41 1
    42   16   42 1
    43   17   43 1
    44   18   44 1
    45   21   45 1
@<TRIPOS>MOLECULE
LIGAND
   45    45     0     0     0
SMALL
NO_CHARGES

@<TRIPOS>ATOM
      1 C1          0.2838   -0.5121    8.9168 C.ar      1 <0>         0.0000
      2 C2          0.7255   -0.2519    7.6195 C.ar      1 <0>         0.0000
      3 C3          1.0627   -1.2866    9.7766 C.ar      1 <0>         0.0000
      4 C4          2.7249   -1.5408    8.0419 C.ar      1 <0>         0.0000
      5 C5          1.9460   -0.7663    7.1821 C.ar      1 <0>         0.0000
      6 C6          2.2832   -1.8009    9.3391 C.ar      1 <0>         0.0000
      7 C7          2.4155   -0.4891    5.7998 C.2       1 <0>         0.0000
      8 C8          1.9325   -1.0133    2.6768 C.2       1 <0>         0.0000
      9 C9         -4.0623    0.8550    1.3177 C.3       1 <0>         0.0000
     10 C10        -3.5584   -1.5885    1.6583 C.3       1 <0>         0.0000
     11 C11         0.2195    0.8307    0.9188 C.3       1 <0>         0.0000
     12 C12        -1.0001    1.1700    0.0549 C.3       1 <0>         0.0000
     13 C13         2.3649   -0.5352    1.2935 C.3       1 <0>         0.0000
     14 C14         1.1534   -0.2750    0.3710 C.3       1 <0>         0.0000
     15 C15        -2.9754   -0.2124    1.3599 C.3       1 <0>         0.0000
     16 N1          1.6681    0.0834   -0.9557 N.3       1 <0>         0.0000
     17 N2          1.4238   -0.2520    4.8674 N.am      1 <0>         0.0000
     18 N3          1.7877    0.0290    3.5734 N.am      1 <0>         0.0000
     19 O1          3.6213   -0.4699    5.5658 O.2       1 <0>         0.0000
     20 O2          1.7602   -2.2018    2.9407 O.2       1 <0>         0.0000
     21 O3          3.2186   -1.5159    0.7230 O.3       1 <0>         0.0000
     22 S1         -2.0977   -0.2515   -0.2193 S.3       1 <0>         0.0000
     23 Cl1         3.2440   -2.7561   10.4008 Cl        1 <0>         0.0000
     24 H1         -0.6664   -0.1113    9.2573 H         1 <0>         0.0000
     25 H2          0.1097    0.3528    6.9588 H         1 <0>         0.0000
     26 H3          0.7056   -1.4810   10.7846 H         1 <0>         0.0000
     27 H4          3.6769   -1.9403    7.6980 H         1 <0>         0.0000
     28 H5         -4.8019    0.6148    0.5457 H         1 <0>         0.0000
     29 H6         -4.5966    0.9180    2.2722 H         1 <0>         0.0000
     30 H7         -3.6542    1.8453    1.0855 H         1 <0>         0.0000
     31 H8         -4.2902   -1.8663    0.8915 H         1 <0>         0.0000
     32 H9         -4.0769   -1.6012    2.6234 H         1 <0>         0.0000
     33 H10        -2.7856   -2.3656    1.6725 H         1 <0>         0.0000
     34 H11        -0.1531    0.5335    1.9082 H         1 <0>         0.0000
     35 H12         0.7975    1.7493    1.0822 H         1 <0>         0.0000
     36 H13        -0.6573    1.5138   -0.9268 H         1 <0>         0.0000
     37 H14        -1.5832    1.9849    0.4933 H         1 <0>         0.0000
     38 H15         2.9484    0.3859    1.4229 H         1 <0>         0.0000
     39 H16         0.5915   -1.2082    0.2610 H         1 <0>         0.0000
     40 H17        -2.2476    0.0460    2.1366 H         1 <0>         0.0000
     41 H18         0.8845    0.1717   -1.5934 H         1 <0>         0.0000
     42 H19         2.2416   -0.6802   -1.2969 H         1 <0>         0.0000
     43 H20         0.4458   -0.2847    5.1337 H         1 <0>         0.0000
     44 H21         1.9478    0.9869    3.2798 H         1 <0>         0.0000
     45 H22         2.7041   -2.3378    0.6655 H         1 <0>         0.0000
@<TRIPOS>BOND
     1    1    2 ar
     2    1    3 ar
     3    2    5 ar
     4    3    6 ar
     5    4    5 ar
     6    4    6 ar
     7    5    7 1
     8    6   23 1
     9    7   17 am
    10    7   19 2
    11    8   13 1
    12    8   18 am
    13    8   20 2
    14    9   15 1
    15   10   15 1
    16   11   12 1
    17   11   14 1
    18   12   22 1
    19   13   14 1
    20   13   21 1
    21   14   16 1
    22   15   22 1
    23   17   18 1
    24    1   24 1
    25    2   25 1
    26    3   26 1
    27    4   27 1
    28    9   28 1
    29    9   29 1
    30    9   30 1
    31   10   31 1
    32   10   32 1
    33   10   33 1
    34   11   34 1
    35   11   35 1
    36   12   36 1
    37   12   37 1
    38   13   38 1
    39   14   39 1
    40   15   40 1
    41   16   41 1
    42   16   42 1
    43   17   43 1
    44   18   44 1
    45   21   45 1
@<TRIPOS>MOLECULE
LIGAND
   45    45     0     0     0
SMALL
NO_CHARGES

@<TRIPOS>ATOM
      1 C1          0.3862   -0.6315    8.9351 C.ar      1 <0>         0.0000
      2 C2          0.6829   -0.3226    7.6077 C.ar      1 <0>         0.0000
      3 C3         -0.8301   -1.2346    9.2558 C.ar      1 <0>         0.0000
      4 C4         -1.4528   -1.2197    6.9215 C.ar      1 <0>         0.0000
      5 C5         -0.2366   -0.6167    6.6009 C.ar      1 <0>         0.0000
      6 C6         -1.7496   -1.5286    8.2490 C.ar      1 <0>         0.0000
      7 C7          0.0801   -0.2867    5.1871 C.2       1 <0>         0.0000
      8 C8          1.9325   -1.0133    2.6768 C.2       1 <0>         0.0000
      9 C9         -2.8396    0.6809   -2.6742 C.3       1 <0>         0.0000
     10 C10        -4.6560   -0.1960   -1.1670 C.3       1 <0>         0.0000
     11 C11         0.2195    0.8307    0.9188 C.3       1 <0>         0.0000
     12 C12        -1.0001    1.1700    0.0549 C.3       1 <0>         0.0000
     13 C13         2.3649   -0.5352    1.2935 C.3       1 <0>         0.0000
     14 C14         1.1534   -0.2750    0.3710 C.3       1 <0>         0.0000
     15 C15        -3.3416    0.5718   -1.2395 C.3       1 <0>         0.0000
     16 N1          1.6681    0.0834   -0.9557 N.3       1 <0>         0.0000
     17 N2          1.4238   -0.2520    4.8674 N.am      1 <0>         0.0000
     18 N3          1.7877    0.0290    3.5734 N.am      1 <0>         0.0000
     19 O1         -0.8375   -0.0833    4.3961 O.2       1 <0>         0.0000
     20 O2          1.7602   -2.2018    2.9407 O.2       1 <0>         0.0000
     21 O3          3.2186   -1.5159    0.7230 O.3       1 <0>         0.0000
     22 S1         -2.0977   -0.2515   -0.2193 S.3       1 <0>         0.0000
     23 Cl1        -3.2499   -2.2732    8.6452 Cl        1 <0>         0.0000
     24 H1          1.1023   -0.4028    9.7188 H         1 <0>         0.0000
     25 H2          1.6339    0.1473    7.3703 H         1 <0>         0.0000
     26 H3         -1.0475   -1.4695   10.2945 H         1 <0>         0.0000
     27 H4         -2.1680   -1.4485    6.1339 H         1 <0>         0.0000
     28 H5         -2.6847   -0.3167   -3.1002 H         1 <0>         0.0000
     29 H6         -3.5648    1.1984   -3.3121 H         1 <0>         0.0000
     30 H7         -1.8850    1.2160   -2.7338 H         1 <0>         0.0000
     31 H8         -4.5291   -1.2071   -1.5698 H         1 <0>         0.0000
     32 H9         -5.4375    0.2943   -1.7580 H         1 <0>         0.0000
     33 H10        -5.0153   -0.2952   -0.1363 H         1 <0>         0.0000
     34 H11        -0.1531    0.5335    1.9082 H         1 <0>         0.0000
     35 H12         0.7975    1.7493    1.0822 H         1 <0>         0.0000
     36 H13        -0.6573    1.5138   -0.9268 H         1 <0>         0.0000
     37 H14        -1.5832    1.9849    0.4933 H         1 <0>         0.0000
     38 H15         2.9484    0.3859    1.4229 H         1 <0>         0.0000
     39 H16         0.5915   -1.2082    0.2610 H         1 <0>         0.0000
     40 H17        -3.4899    1.5778   -0.8328 H         1 <0>         0.0000
     41 H18         0.8845    0.1717   -1.5934 H         1 <0>         0.0000
     42 H19         2.2416   -0.6802   -1.2969 H         1 <0>         0.0000
     43 H20         2.1281   -0.4306    5.5750 H         1 <0>         0.0000
     44 H21         1.9478    0.9869    3.2798 H         1 <0>         0.0000
     45 H22         2.7041   -2.3378    0.6655 H         1 <0>         0.0000
@<TRIPOS>BOND
     1    1    2 ar
     2    1    3 ar
     3    2    5 ar
     4    3    6 ar
     5    4    5 ar
     6    4    6 ar
     7    5    7 1
     8    6   23 1
     9    7   17 am
    10    7   19 2
    11    8   13 1
    12    8   18 am
    13    8   20 2
    14    9   15 1
    15   10   15 1
    16   11   12 1
    17   11   14 1
    18   12   22 1
    19   13   14 1
    20   13   21 1
    21   14   16 1
    22   15   22 1
    23   17   18 1
    24    1   24 1
    25    2   25 1
    26    3   26 1
    27    4   27 1
    28    9   28 1
    29    9   29 1
    30    9   30 1
    31   10   31 1
    32   10   32 1
    33   10   33 1
    34   11   34 1
    35   11   35 1
    36   12   36 1
    37   12   37 1
    38   13   38 1
    39   14   39 1
    40   15   40 1
    41   16   41 1
    42   16   42 1
    43   17   43 1
    44   18   44 1
    45   21   45 1
@<TRIPOS>MOLECULE
LIGAND
   45    45     0     0     0
SMALL
NO_CHARGES

@<TRIPOS>ATOM
      1 C1         -1.7183   -0.4637    8.5029 C.ar      1 <0>         0.0000
      2 C2         -1.4200   -0.1538    7.1760 C.ar      1 <0>         0.0000
      3 C3         -0.8331   -1.2363    9.2547 C.ar      1 <0>         0.0000
      4 C4          0.6487   -1.3893    7.3526 C.ar      1 <0>         0.0000
      5 C5         -0.2366   -0.6167    6.6009 C.ar      1 <0>         0.0000
      6 C6          0.3503   -1.6991    8.6795 C.ar      1 <0>         0.0000
      7 C7          0.0801   -0.2867    5.1871 C.2       1 <0>         0.0000
      8 C8          1.9325   -1.0133    2.6768 C.2       1 <0>         0.0000
      9 C9         -2.8396    0.6809   -2.6742 C.3       1 <0>         0.0000
     10 C10        -4.6560   -0.1960   -1.1670 C.3       1 <0>         0.0000
     11 C11         0.2195    0.8307    0.9188 C.3       1 <0>         0.0000
     12 C12        -1.0001    1.1700    0.0549 C.3       1 <0>         0.0000
     13 C13         2.3649   -0.5352    1.2935 C.3       1 <0>         0.0000
     14 C14         1.1534   -0.2750    0.3710 C.3       1 <0>         0.0000
     15 C15        -3.3416    0.5718   -1.2395 C.3       1 <0>         0.0000
     16 N1          1.6681    0.0834   -0.9557 N.3       1 <0>         0.0000
     17 N2          1.4238   -0.2520    4.8674 N.am      1 <0>         0.0000
     18 N3          1.7877    0.0290    3.5734 N.am      1 <0>         0.0000
     19 O1         -0.8375   -0.0833    4.3961 O.2       1 <0>         0.0000
     20 O2          1.7602   -2.2018    2.9407 O.2       1 <0>         0.0000
     21 O3          3.2186   -1.5159    0.7230 O.3       1 <0>         0.0000
     22 S1         -2.0977   -0.2515   -0.2193 S.3       1 <0>         0.0000
     23 Cl1         1.4424   -2.6521    9.6079 Cl        1 <0>         0.0000
     24 H1         -2.6397   -0.1029    8.9506 H         1 <0>         0.0000
     25 H2         -2.1177    0.4490    6.6003 H         1 <0>         0.0000
     26 H3         -1.0790   -1.4697   10.2874 H         1 <0>         0.0000
     27 H4          1.5714   -1.7486    6.9015 H         1 <0>         0.0000
     28 H5         -2.6847   -0.3167   -3.1002 H         1 <0>         0.0000
     29 H6         -3.5648    1.1984   -3.3121 H         1 <0>         0.0000
     30 H7         -1.8850    1.2160   -2.7338 H         1 <0>         0.0000
     31 H8         -4.5291   -1.2071   -1.5698 H         1 <0>         0.0000
     32 H9         -5.4375    0.2943   -1.7580 H         1 <0>         0.0000
     33 H10        -5.0153   -0.2952   -0.1363 H         1 <0>         0.0000
     34 H11        -0.1531    0.5335    1.9082 H         1 <0>         0.0000
     35 H12         0.7975    1.7493    1.0822 H         1 <0>         0.0000
     36 H13        -0.6573    1.5138   -0.9268 H         1 <0>         0.0000
     37 H14        -1.5832    1.9849    0.4933 H         1 <0>         0.0000
     38 H15         2.9484    0.3859    1.4229 H         1 <0>         0.0000
     39 H16         0.5915   -1.2082    0.2610 H         1 <0>         0.0000
     40 H17        -3.4899    1.5778   -0.8328 H         1 <0>         0.0000
     41 H18         0.8845    0.1717   -1.5934 H         1 <0>         0.0000
     42 H19         2.2416   -0.6802   -1.2969 H         1 <0>         0.0000
     43 H20         2.1281   -0.4306    5.5750 H         1 <0>         0.0000
     44 H21         1.9478    0.9869    3.2798 H         1 <0>         0.0000
     45 H22         2.7041   -2.3378    0.6655 H         1 <0>         0.0000
@<TRIPOS>BOND
     1    1    2 ar
     2    1    3 ar
     3    2    5 ar
     4    3    6 ar
     5    4    5 ar
     6    4    6 ar
     7    5    7 1
     8    6   23 1
     9    7   17 am
    10    7   19 2
    11    8   13 1
    12    8   18 am
    13    8   20 2
    14    9   15 1
    15   10   15 1
    16   11   12 1
    17   11   14 1
    18   12   22 1
    19   13   14 1
    20   13   21 1
    21   14   16 1
    22   15   22 1
    23   17   18 1
    24    1   24 1
    25    2   25 1
    26    3   26 1
    27    4   27 1
    28    9   28 1
    29    9   29 1
    30    9   30 1
    31   10   31 1
    32   10   32 1
    33   10   33 1
    34   11   34 1
    35   11   35 1
    36   12   36 1
    37   12   37 1
    38   13   38 1
    39   14   39 1
    40   15   40 1
    41   16   41 1
    42   16   42 1
    43   17   43 1
    44   18   44 1
    45   21   45 1
@<TRIPOS>MOLECULE
LIGAND
   45    45     0     0     0
SMALL
NO_CHARGES

@<TRIPOS>ATOM
      1 C1          2.3269   -0.7274    9.5675 C.ar      1 <0>         0.0000
      2 C2          2.7671   -0.4681    8.2696 C.ar      1 <0>         0.0000
      3 C3          1.0657   -1.2849    9.7779 C.ar      1 <0>         0.0000
      4 C4          0.6848   -1.3238    7.3925 C.ar      1 <0>         0.0000
      5 C5          1.9460   -0.7663    7.1821 C.ar      1 <0>         0.0000
      6 C6          0.2446   -1.5831    8.6904 C.ar      1 <0>         0.0000
      7 C7          2.4155   -0.4891    5.7998 C.2       1 <0>         0.0000
      8 C8          1.9325   -1.0133    2.6768 C.2       1 <0>         0.0000
      9 C9         -4.0623    0.8550    1.3177 C.3       1 <0>         0.0000
     10 C10        -3.5584   -1.5885    1.6583 C.3       1 <0>         0.0000
     11 C11         0.2195    0.8307    0.9188 C.3       1 <0>         0.0000
     12 C12        -1.0001    1.1700    0.0549 C.3       1 <0>         0.0000
     13 C13         2.3649   -0.5352    1.2935 C.3       1 <0>         0.0000
     14 C14         1.1534   -0.2750    0.3710 C.3       1 <0>         0.0000
     15 C15        -2.9754   -0.2124    1.3599 C.3       1 <0>         0.0000
     16 N1          1.6681    0.0834   -0.9557 N.3       1 <0>         0.0000
     17 N2          1.4238   -0.2520    4.8674 N.am      1 <0>         0.0000
     18 N3          1.7877    0.0290    3.5734 N.am      1 <0>         0.0000
     19 O1          3.6213   -0.4699    5.5658 O.2       1 <0>         0.0000
     20 O2          1.7602   -2.2018    2.9407 O.2       1 <0>         0.0000
     21 O3          3.2186   -1.5159    0.7230 O.3       1 <0>         0.0000
     22 S1         -2.0977   -0.2515   -0.2193 S.3       1 <0>         0.0000
     23 Cl1        -1.3113   -2.2714    8.9508 Cl        1 <0>         0.0000
     24 H1          2.9664   -0.4955   10.4140 H         1 <0>         0.0000
     25 H2          3.7518   -0.0334    8.1183 H         1 <0>         0.0000
     26 H3          0.7362   -1.4814   10.7949 H         1 <0>         0.0000
     27 H4          0.0467   -1.5558    6.5422 H         1 <0>         0.0000
     28 H5         -4.8019    0.6148    0.5457 H         1 <0>         0.0000
     29 H6         -4.5966    0.9180    2.2722 H         1 <0>         0.0000
     30 H7         -3.6542    1.8453    1.0855 H         1 <0>         0.0000
     31 H8         -4.2902   -1.8663    0.8915 H         1 <0>         0.0000
     32 H9         -4.0769   -1.6012    2.6234 H         1 <0>         0.0000
     33 H10        -2.7856   -2.3656    1.6725 H         1 <0>         0.0000
     34 H11        -0.1531    0.5335    1.9082 H         1 <0>         0.0000
     35 H12         0.7975    1.7493    1.0822 H         1 <0>         0.0000
     36 H13        -0.6573    1.5138   -0.9268 H         1 <0>         0.0000
     37 H14        -1.5832    1.9849    0.4933 H         1 <0>         0.0000
     38 H15         2.9484    0.3859    1.4229 H         1 <0>         0.0000
     39 H16         0.5915   -1.2082    0.2610 H         1 <0>         0.0000
     40 H17        -2.2476    0.0460    2.1366 H         1 <0>         0.0000
     41 H18         0.8845    0.1717   -1.5934 H         1 <0>         0.0000
     42 H19         2.2416   -0.6802   -1.2969 H         1 <0>         0.0000
     43 H20         0.4458   -0.2847    5.1337 H         1 <0>         0.0000
     44 H21         1.9478    0.9869    3.2798 H         1 <0>         0.0000
     45 H22         2.7041   -2.3378    0.6655 H         1 <0>         0.0000
@<TRIPOS>BOND
     1    1    2 ar
     2    1    3 ar
     3    2    5 ar
     4    3    6 ar
     5    4    5 ar
     6    4    6 ar
     7    5    7 1
     8    6   23 1
     9    7   17 am
    10    7   19 2
    11    8   13 1
    12    8   18 am
    13    8   20 2
    14    9   15 1
    15   10   15 1
    16   11   12 1
    17   11   14 1
    18   12   22 1
    19   13   14 1
    20   13   21 1
    21   14   16 1
    22   15   22 1
    23   17   18 1
    24    1   24 1
    25    2   25 1
    26    3   26 1
    27    4   27 1
    28    9   28 1
    29    9   29 1
    30    9   30 1
    31   10   31 1
    32   10   32 1
    33   10   33 1
    34   11   34 1
    35   11   35 1
    36   12   36 1
    37   12   37 1
    38   13   38 1
    39   14   39 1
    40   15   40 1
    41   16   41 1
    42   16   42 1
    43   17   43 1
    44   18   44 1
    45   21   45 1
@<TRIPOS>MOLECULE
LIGAND
   45    45     0     0     0
SMALL
NO_CHARGES

@<TRIPOS>ATOM
      1 C1         -0.1690   -1.4033    8.5959 C.ar      1 <0>         0.0000
      2 C2          0.1811   -1.0431    7.2947 C.ar      1 <0>         0.0000
      3 C3         -0.3818   -0.4171    9.5593 C.ar      1 <0>         0.0000
      4 C4          0.1059    1.2894    7.9200 C.ar      1 <0>         0.0000
      5 C5          0.3186    0.3032    6.9567 C.ar      1 <0>         0.0000
      6 C6         -0.2443    0.9292    9.2213 C.ar      1 <0>         0.0000
      7 C7          0.6923    0.6859    5.5704 C.2       1 <0>         0.0000
      8 C8          1.9325   -1.0133    2.6768 C.2       1 <0>         0.0000
      9 C9         -2.8396    0.6809   -2.6742 C.3       1 <0>         0.0000
     10 C10        -4.6560   -0.1960   -1.1670 C.3       1 <0>         0.0000
     11 C11         0.2195    0.8307    0.9188 C.3       1 <0>         0.0000
     12 C12        -1.0001    1.1700    0.0549 C.3       1 <0>         0.0000
     13 C13         2.3649   -0.5352    1.2935 C.3       1 <0>         0.0000
     14 C14         1.1534   -0.2750    0.3710 C.3       1 <0>         0.0000
     15 C15        -3.3416    0.5718   -1.2395 C.3       1 <0>         0.0000
     16 N1          1.6681    0.0834   -0.9557 N.3       1 <0>         0.0000
     17 N2          1.4238   -0.2520    4.8674 N.am      1 <0>         0.0000
     18 N3          1.7877    0.0290    3.5734 N.am      1 <0>         0.0000
     19 O1          0.3313    1.7736    5.1279 O.2       1 <0>         0.0000
     20 O2          1.7602   -2.2018    2.9407 O.2       1 <0>         0.0000
     21 O3          3.2186   -1.5159    0.7230 O.3       1 <0>         0.0000
     22 S1         -2.0977   -0.2515   -0.2193 S.3       1 <0>         0.0000
     23 Cl1        -0.5074    2.1455   10.4103 Cl        1 <0>         0.0000
     24 H1         -0.2763   -2.4515    8.8588 H         1 <0>         0.0000
     25 H2          0.3444   -1.8206    6.5528 H         1 <0>         0.0000
     26 H3         -0.6541   -0.7128   10.5691 H         1 <0>         0.0000
     27 H4          0.2134    2.3388    7.6534 H         1 <0>         0.0000
     28 H5         -2.6847   -0.3167   -3.1002 H         1 <0>         0.0000
     29 H6         -3.5648    1.1984   -3.3121 H         1 <0>         0.0000
     30 H7         -1.8850    1.2160   -2.7338 H         1 <0>         0.0000
     31 H8         -4.5291   -1.2071   -1.5698 H         1 <0>         0.0000
     32 H9         -5.4375    0.2943   -1.7580 H         1 <0>         0.0000
     33 H10        -5.0153   -0.2952   -0.1363 H         1 <0>         0.0000
     34 H11        -0.1531    0.5335    1.9082 H         1 <0>         0.0000
     35 H12         0.7975    1.7493    1.0822 H         1 <0>         0.0000
     36 H13        -0.6573    1.5138   -0.9268 H         1 <0>         0.0000
     37 H14        -1.5832    1.9849    0.4933 H         1 <0>         0.0000
     38 H15         2.9484    0.3859    1.4229 H         1 <0>         0.0000
     39 H16         0.5915   -1.2082    0.2610 H         1 <0>         0.0000
     40 H17        -3.4899    1.5778   -0.8328 H         1 <0>         0.0000
     41 H18         0.8845    0.1717   -1.5934 H         1 <0>         0.0000
     42 H19         2.2416   -0.6802   -1.2969 H         1 <0>         0.0000
     43 H20         1.6871   -1.1312    5.2989 H         1 <0>         0.0000
     44 H21         1.9478    0.9869    3.2798 H         1 <0>         0.0000
     45 H22         2.7041   -2.3378    0.6655 H         1 <0>         0.0000
@<TRIPOS>BOND
     1    1    2 ar
     2    1    3 ar
     3    2    5 ar
     4    3    6 ar
     5    4    5 ar
     6    4    6 ar
     7    5    7 1
     8    6   23 1
     9    7   17 am
    10    7   19 2
    11    8   13 1
    12    8   18 am
    13    8   20 2
    14    9   15 1
    15   10   15 1
    16   11   12 1
    17   11   14 1
    18   12   22 1
    19   13   14 1
    20   13   21 1
    21   14   16 1
    22   15   22 1
    23   17   18 1
    24    1   24 1
    25    2   25 1
    26    3   26 1
    27    4   27 1
    28    9   28 1
    29    9   29 1
    30    9   30 1
    31   10   31 1
    32   10   32 1
    33   10   33 1
    34   11   34 1
    35   11   35 1
    36   12   36 1
    37   12   37 1
    38   13   38 1
    39   14   39 1
    40   15   40 1
    41   16   41 1
    42   16   42 1
    43   17   43 1
    44   18   44 1
    45   21   45 1
@<TRIPOS>MOLECULE
LIGAND
   45    45     0     0     0
SMALL
NO_CHARGES

@<TRIPOS>ATOM
      1 C1          2.2867   -1.8006    9.3387 C.ar      1 <0>         0.0000
      2 C2          2.7263   -1.5405    8.0408 C.ar      1 <0>         0.0000
      3 C3          1.0666   -1.2866    9.7779 C.ar      1 <0>         0.0000
      4 C4          0.7260   -0.2522    7.6213 C.ar      1 <0>         0.0000
      5 C5          1.9460   -0.7663    7.1821 C.ar      1 <0>         0.0000
      6 C6          0.2863   -0.5124    8.9192 C.ar      1 <0>         0.0000
      7 C7          2.4155   -0.4891    5.7998 C.2       1 <0>         0.0000
      8 C8          1.9325   -1.0133    2.6768 C.2       1 <0>         0.0000
      9 C9         -4.0623    0.8550    1.3177 C.3       1 <0>         0.0000
     10 C10        -3.5584   -1.5885    1.6583 C.3       1 <0>         0.0000
     11 C11         0.2195    0.8307    0.9188 C.3       1 <0>         0.0000
     12 C12        -1.0001    1.1700    0.0549 C.3       1 <0>         0.0000
     13 C13         2.3649   -0.5352    1.2935 C.3       1 <0>         0.0000
     14 C14         1.1534   -0.2750    0.3710 C.3       1 <0>         0.0000
     15 C15        -2.9754   -0.2124    1.3599 C.3       1 <0>         0.0000
     16 N1          1.6681    0.0834   -0.9557 N.3       1 <0>         0.0000
     17 N2          1.4238   -0.2520    4.8674 N.am      1 <0>         0.0000
     18 N3          1.7877    0.0290    3.5734 N.am      1 <0>         0.0000
     19 O1          3.6213   -0.4699    5.5658 O.2       1 <0>         0.0000
     20 O2          1.7602   -2.2018    2.9407 O.2       1 <0>         0.0000
     21 O3          3.2186   -1.5159    0.7230 O.3       1 <0>         0.0000
     22 S1         -2.0977   -0.2515   -0.2193 S.3       1 <0>         0.0000
     23 Cl1        -1.2194    0.1212    9.4617 Cl        1 <0>         0.0000
     24 H1          2.8942   -2.4037   10.0070 H         1 <0>         0.0000
     25 H2          3.6789   -1.9464    7.7100 H         1 <0>         0.0000
     26 H3          0.7369   -1.4976   10.7919 H         1 <0>         0.0000
     27 H4          0.1191    0.3510    6.9490 H         1 <0>         0.0000
     28 H5         -4.8019    0.6148    0.5457 H         1 <0>         0.0000
     29 H6         -4.5966    0.9180    2.2722 H         1 <0>         0.0000
     30 H7         -3.6542    1.8453    1.0855 H         1 <0>         0.0000
     31 H8         -4.2902   -1.8663    0.8915 H         1 <0>         0.0000
     32 H9         -4.0769   -1.6012    2.6234 H         1 <0>         0.0000
     33 H10        -2.7856   -2.3656    1.6725 H         1 <0>         0.0000
     34 H11        -0.1531    0.5335    1.9082 H         1 <0>         0.0000
     35 H12         0.7975    1.7493    1.0822 H         1 <0>         0.0000
     36 H13        -0.6573    1.5138   -0.9268 H         1 <0>         0.0000
     37 H14        -1.5832    1.9849    0.4933 H         1 <0>         0.0000
     38 H15         2.9484    0.3859    1.4229 H         1 <0>         0.0000
     39 H16         0.5915   -1.2082    0.2610 H         1 <0>         0.0000
     40 H17        -2.2476    0.0460    2.1366 H         1 <0>         0.0000
     41 H18         0.8845    0.1717   -1.5934 H         1 <0>         0.0000
     42 H19         2.2416   -0.6802   -1.2969 H         1 <0>         0.0000
     43 H20         0.4458   -0.2847    5.1337 H         1 <0>         0.0000
     44 H21         1.9478    0.9869    3.2798 H         1 <0>         0.0000
     45 H22         2.7041   -2.3378    0.6655 H         1 <0>         0.0000
@<TRIPOS>BOND
     1    1    2 ar
     2    1    3 ar
     3    2    5 ar
     4    3    6 ar
     5    4    5 ar
     6    4    6 ar
     7    5    7 1
     8    6   23 1
     9    7   17 am
    10    7   19 2
    11    8   13 1
    12    8   18 am
    13    8   20 2
    14    9   15 1
    15   10   15 1
    16   11   12 1
    17   11   14 1
    18   12   22 1
    19   13   14 1
    20   13   21 1
    21   14   16 1
    22   15   22 1
    23   17   18 1
    24    1   24 1
    25    2   25 1
    26    3   26 1
    27    4   27 1
    28    9   28 1
    29    9   29 1
    30    9   30 1
    31   10   31 1
    32   10   32 1
    33   10   33 1
    34   11   34 1
    35   11   35 1
    36   12   36 1
    37   12   37 1
    38   13   38 1
    39   14   39 1
    40   15   40 1
    41   16   41 1
    42   16   42 1
    43   17   43 1
    44   18   44 1
    45   21   45 1
@<TRIPOS>MOLECULE
LIGAND
   45    45     0     0     0
SMALL
NO_CHARGES

@<TRIPOS>ATOM
      1 C1         -0.2456    0.9322    9.2201 C.ar      1 <0>         0.0000
      2 C2          0.1058    1.2906    7.9187 C.ar      1 <0>         0.0000
      3 C3         -0.3840   -0.4137    9.5596 C.ar      1 <0>         0.0000
      4 C4          0.1802   -1.0427    7.2962 C.ar      1 <0>         0.0000
      5 C5          0.3186    0.3032    6.9567 C.ar      1 <0>         0.0000
      6 C6         -0.1712   -1.4011    8.5976 C.ar      1 <0>         0.0000
      7 C7          0.6923    0.6859    5.5704 C.2       1 <0>         0.0000
      8 C8          1.9325   -1.0133    2.6768 C.2       1 <0>         0.0000
      9 C9         -2.8396    0.6809   -2.6742 C.3       1 <0>         0.0000
     10 C10        -4.6560   -0.1960   -1.1670 C.3       1 <0>         0.0000
     11 C11         0.2195    0.8307    0.9188 C.3       1 <0>         0.0000
     12 C12        -1.0001    1.1700    0.0549 C.3       1 <0>         0.0000
     13 C13         2.3649   -0.5352    1.2935 C.3       1 <0>         0.0000
     14 C14         1.1534   -0.2750    0.3710 C.3       1 <0>         0.0000
     15 C15        -3.3416    0.5718   -1.2395 C.3       1 <0>         0.0000
     16 N1          1.6681    0.0834   -0.9557 N.3       1 <0>         0.0000
     17 N2          1.4238   -0.2520    4.8674 N.am      1 <0>         0.0000
     18 N3          1.7877    0.0290    3.5734 N.am      1 <0>         0.0000
     19 O1          0.3313    1.7736    5.1279 O.2       1 <0>         0.0000
     20 O2          1.7602   -2.2018    2.9407 O.2       1 <0>         0.0000
     21 O3          3.2186   -1.5159    0.7230 O.3       1 <0>         0.0000
     22 S1         -2.0977   -0.2515   -0.2193 S.3       1 <0>         0.0000
     23 Cl1        -0.3417   -3.0616    9.0174 Cl        1 <0>         0.0000
     24 H1         -0.4110    1.7011    9.9690 H         1 <0>         0.0000
     25 H2          0.2105    2.3426    7.6662 H         1 <0>         0.0000
     26 H3         -0.6583   -0.6779   10.5776 H         1 <0>         0.0000
     27 H4          0.3474   -1.8109    6.5438 H         1 <0>         0.0000
     28 H5         -2.6847   -0.3167   -3.1002 H         1 <0>         0.0000
     29 H6         -3.5648    1.1984   -3.3121 H         1 <0>         0.0000
     30 H7         -1.8850    1.2160   -2.7338 H         1 <0>         0.0000
     31 H8         -4.5291   -1.2071   -1.5698 H         1 <0>         0.0000
     32 H9         -5.4375    0.2943   -1.7580 H         1 <0>         0.0000
     33 H10        -5.0153   -0.2952   -0.1363 H         1 <0>         0.0000
     34 H11        -0.1531    0.5335    1.9082 H         1 <0>         0.0000
     35 H12         0.7975    1.7493    1.0822 H         1 <0>         0.0000
     36 H13        -0.6573    1.5138   -0.9268 H         1 <0>         0.0000
     37 H14        -1.5832    1.9849    0.4933 H         1 <0>         0.0000
     38 H15         2.9484    0.3859    1.4229 H         1 <0>         0.0000
     39 H16         0.5915   -1.2082    0.2610 H         1 <0>         0.0000
     40 H17        -3.4899    1.5778   -0.8328 H         1 <0>         0.0000
     41 H18         0.8845    0.1717   -1.5934 H         1 <0>         0.0000
     42 H19         2.2416   -0.6802   -1.2969 H         1 <0>         0.0000
     43 H20         1.6871   -1.1312    5.2989 H         1 <0>         0.0000
     44 H21         1.9478    0.9869    3.2798 H         1 <0>         0.0000
     45 H22         2.7041   -2.3378    0.6655 H         1 <0>         0.0000
@<TRIPOS>BOND
     1    1    2 ar
     2    1    3 ar
     3    2    5 ar
     4    3    6 ar
     5    4    5 ar
     6    4    6 ar
     7    5    7 1
     8    6   23 1
     9    7   17 am
    10    7   19 2
    11    8   13 1
    12    8   18 am
    13    8   20 2
    14    9   15 1
    15   10   15 1
    16   11   12 1
    17   11   14 1
    18   12   22 1
    19   13   14 1
    20   13   21 1
    21   14   16 1
    22   15   22 1
    23   17   18 1
    24    1   24 1
    25    2   25 1
    26    3   26 1
    27    4   27 1
    28    9   28 1
    29    9   29 1
    30    9   30 1
    31   10   31 1
    32   10   32 1
    33   10   33 1
    34   11   34 1
    35   11   35 1
    36   12   36 1
    37   12   37 1
    38   13   38 1
    39   14   39 1
    40   15   40 1
    41   16   41 1
    42   16   42 1
    43   17   43 1
    44   18   44 1
    45   21   45 1
@<TRIPOS>MOLECULE
LIGAND
   45    45     0     0     0
SMALL
NO_CHARGES

@<TRIPOS>ATOM
      1 C1         -1.7508   -1.5308    8.2465 C.ar      1 <0>         0.0000
      2 C2         -1.4530   -1.2202    6.9197 C.ar      1 <0>         0.0000
      3 C3         -0.8322   -1.2379    9.2545 C.ar      1 <0>         0.0000
      4 C4          0.6821   -0.3238    7.6089 C.ar      1 <0>         0.0000
      5 C5         -0.2366   -0.6167    6.6009 C.ar      1 <0>         0.0000
      6 C6          0.3843   -0.6344    8.9357 C.ar      1 <0>         0.0000
      7 C7          0.0801   -0.2867    5.1871 C.2       1 <0>         0.0000
      8 C8          1.9325   -1.0133    2.6768 C.2       1 <0>         0.0000
      9 C9         -2.8396    0.6809   -2.6742 C.3       1 <0>         0.0000
     10 C10        -4.6560   -0.1960   -1.1670 C.3       1 <0>         0.0000
     11 C11         0.2195    0.8307    0.9188 C.3       1 <0>         0.0000
     12 C12        -1.0001    1.1700    0.0549 C.3       1 <0>         0.0000
     13 C13         2.3649   -0.5352    1.2935 C.3       1 <0>         0.0000
     14 C14         1.1534   -0.2750    0.3710 C.3       1 <0>         0.0000
     15 C15        -3.3416    0.5718   -1.2395 C.3       1 <0>         0.0000
     16 N1          1.6681    0.0834   -0.9557 N.3       1 <0>         0.0000
     17 N2          1.4238   -0.2520    4.8674 N.am      1 <0>         0.0000
     18 N3          1.7877    0.0290    3.5734 N.am      1 <0>         0.0000
     19 O1         -0.8375   -0.0833    4.3961 O.2       1 <0>         0.0000
     20 O2          1.7602   -2.2018    2.9407 O.2       1 <0>         0.0000
     21 O3          3.2186   -1.5159    0.7230 O.3       1 <0>         0.0000
     22 S1         -2.0977   -0.2515   -0.2193 S.3       1 <0>         0.0000
     23 Cl1         1.5171   -0.2728   10.1801 Cl        1 <0>         0.0000
     24 H1         -2.6981   -2.0004    8.4946 H         1 <0>         0.0000
     25 H2         -2.1768   -1.4534    6.1430 H         1 <0>         0.0000
     26 H3         -1.0781   -1.4858   10.2839 H         1 <0>         0.0000
     27 H4          1.6301    0.1476    7.3573 H         1 <0>         0.0000
     28 H5         -2.6847   -0.3167   -3.1002 H         1 <0>         0.0000
     29 H6         -3.5648    1.1984   -3.3121 H         1 <0>         0.0000
     30 H7         -1.8850    1.2160   -2.7338 H         1 <0>         0.0000
     31 H8         -4.5291   -1.2071   -1.5698 H         1 <0>         0.0000
     32 H9         -5.4375    0.2943   -1.7580 H         1 <0>         0.0000
     33 H10        -5.0153   -0.2952   -0.1363 H         1 <0>         0.0000
     34 H11        -0.1531    0.5335    1.9082 H         1 <0>         0.0000
     35 H12         0.7975    1.7493    1.0822 H         1 <0>         0.0000
     36 H13        -0.6573    1.5138   -0.9268 H         1 <0>         0.0000
     37 H14        -1.5832    1.9849    0.4933 H         1 <0>         0.0000
     38 H15         2.9484    0.3859    1.4229 H         1 <0>         0.0000
     39 H16         0.5915   -1.2082    0.2610 H         1 <0>         0.0000
     40 H17        -3.4899    1.5778   -0.8328 H         1 <0>         0.0000
     41 H18         0.8845    0.1717   -1.5934 H         1 <0>         0.0000
     42 H19         2.2416   -0.6802   -1.2969 H         1 <0>         0.0000
     43 H20         2.1281   -0.4306    5.5750 H         1 <0>         0.0000
     44 H21         1.9478    0.9869    3.2798 H         1 <0>         0.0000
     45 H22         2.7041   -2.3378    0.6655 H         1 <0>         0.0000
@<TRIPOS>BOND
     1    1    2 ar
     2    1    3 ar
     3    2    5 ar
     4    3    6 ar
     5    4    5 ar
     6    4    6 ar
     7    5    7 1
     8    6   23 1
     9    7   17 am
    10    7   19 2
    11    8   13 1
    12    8   18 am
    13    8   20 2
    14    9   15 1
    15   10   15 1
    16   11   12 1
    17   11   14 1
    18   12   22 1
    19   13   14 1
    20   13   21 1
    21   14   16 1
    22   15   22 1
    23   17   18 1
    24    1   24 1
    25    2   25 1
    26    3   26 1
    27    4   27 1
    28    9   28 1
    29    9   29 1
    30    9   30 1
    31   10   31 1
    32   10   32 1
    33   10   33 1
    34   11   34 1
    35   11   35 1
    36   12   36 1
    37   12   37 1
    38   13   38 1
    39   14   39 1
    40   15   40 1
    41   16   41 1
    42   16   42 1
    43   17   43 1
    44   18   44 1
    45   21   45 1
@<TRIPOS>MOLECULE
LIGAND
   45    45     0     0     0
SMALL
NO_CHARGES

@<TRIPOS>ATOM
      1 C1         -0.3007    0.0342    9.1181 C.ar      1 <0>         0.0000
      2 C2         -0.0572    0.4134    7.7980 C.ar      1 <0>         0.0000
      3 C3          0.2080   -1.1709    9.6027 C.ar      1 <0>         0.0000
      4 C4          1.2035   -1.6176    7.4472 C.ar      1 <0>         0.0000
      5 C5          0.6949   -0.4125    6.9626 C.ar      1 <0>         0.0000
      6 C6          0.9601   -1.9967    8.7673 C.ar      1 <0>         0.0000
      7 C7          0.9532   -0.0081    5.5563 C.2       1 <0>         0.0000
      8 C8          1.9325   -1.0133    2.6768 C.2       1 <0>         0.0000
      9 C9         -4.0623    0.8550    1.3177 C.3       1 <0>         0.0000
     10 C10        -3.5584   -1.5885    1.6583 C.3       1 <0>         0.0000
     11 C11         0.2195    0.8307    0.9188 C.3       1 <0>         0.0000
     12 C12        -1.0001    1.1700    0.0549 C.3       1 <0>         0.0000
     13 C13         2.3649   -0.5352    1.2935 C.3       1 <0>         0.0000
     14 C14         1.1534   -0.2750    0.3710 C.3       1 <0>         0.0000
     15 C15        -2.9754   -0.2124    1.3599 C.3       1 <0>         0.0000
     16 N1          1.6681    0.0834   -0.9557 N.3       1 <0>         0.0000
     17 N2          2.1084   -0.5131    4.9911 N.am      1 <0>         0.0000
     18 N3          2.3999   -0.1941    3.6876 N.am      1 <0>         0.0000
     19 O1          0.1465    0.7178    4.9806 O.2       1 <0>         0.0000
     20 O2          1.2610   -2.0296    2.8442 O.2       1 <0>         0.0000
     21 O3          3.2186   -1.5159    0.7230 O.3       1 <0>         0.0000
     22 S1         -2.0977   -0.2515   -0.2193 S.3       1 <0>         0.0000
     23 Cl1         1.5879   -3.4833    9.3661 Cl        1 <0>         0.0000
     24 H1         -0.8859    0.6775    9.7685 H         1 <0>         0.0000
     25 H2         -0.4589    1.3547    7.4319 H         1 <0>         0.0000
     26 H3          0.0102   -1.4532   10.6336 H         1 <0>         0.0000
     27 H4          1.7904   -2.2596    6.7933 H         1 <0>         0.0000
     28 H5         -4.8019    0.6148    0.5457 H         1 <0>         0.0000
     29 H6         -4.5966    0.9180    2.2722 H         1 <0>         0.0000
     30 H7         -3.6542    1.8453    1.0855 H         1 <0>         0.0000
     31 H8         -4.2902   -1.8663    0.8915 H         1 <0>         0.0000
     32 H9         -4.0769   -1.6012    2.6234 H         1 <0>         0.0000
     33 H10        -2.7856   -2.3656    1.6725 H         1 <0>         0.0000
     34 H11        -0.1531    0.5335    1.9082 H         1 <0>         0.0000
     35 H12         0.7975    1.7493    1.0822 H         1 <0>         0.0000
     36 H13        -0.6573    1.5138   -0.9268 H         1 <0>         0.0000
     37 H14        -1.5832    1.9849    0.4933 H         1 <0>         0.0000
     38 H15         2.9484    0.3859    1.4229 H         1 <0>         0.0000
     39 H16         0.5915   -1.2082    0.2610 H         1 <0>         0.0000
     40 H17        -2.2476    0.0460    2.1366 H         1 <0>         0.0000
     41 H18         0.8845    0.1717   -1.5934 H         1 <0>         0.0000
     42 H19         2.2416   -0.6802   -1.2969 H         1 <0>         0.0000
     43 H20         2.7293   -1.1081    5.5287 H         1 <0>         0.0000
     44 H21         2.9499    0.6302    3.4697 H         1 <0>         0.0000
     45 H22         2.7041   -2.3378    0.6655 H         1 <0>         0.0000
@<TRIPOS>BOND
     1    1    2 ar
     2    1    3 ar
     3    2    5 ar
     4    3    6 ar
     5    4    5 ar
     6    4    6 ar
     7    5    7 1
     8    6   23 1
     9    7   17 am
    10    7   19 2
    11    8   13 1
    12    8   18 am
    13    8   20 2
    14    9   15 1
    15   10   15 1
    16   11   12 1
    17   11   14 1
    18   12   22 1
    19   13   14 1
    20   13   21 1
    21   14   16 1
    22   15   22 1
    23   17   18 1
    24    1   24 1
    25    2   25 1
    26    3   26 1
    27    4   27 1
    28    9   28 1
    29    9   29 1
    30    9   30 1
    31   10   31 1
    32   10   32 1
    33   10   33 1
    34   11   34 1
    35   11   35 1
    36   12   36 1
    37   12   37 1
    38   13   38 1
    39   14   39 1
    40   15   40 1
    41   16   41 1
    42   16   42 1
    43   17   43 1
    44   18   44 1
    45   21   45 1
@<TRIPOS>MOLECULE
LIGAND
   45    45     0     0     0
SMALL
NO_CHARGES

@<TRIPOS>ATOM
      1 C1          1.3691   -2.5452    8.7036 C.ar      1 <0>         0.0000
      2 C2          1.5963   -2.0804    7.4082 C.ar      1 <0>         0.0000
      3 C3          1.1963   -1.6386    9.7496 C.ar      1 <0>         0.0000
      4 C4          1.4779    0.1975    8.2048 C.ar      1 <0>         0.0000
      5 C5          1.6507   -0.7090    7.1588 C.ar      1 <0>         0.0000
      6 C6          1.2507   -0.2673    9.5002 C.ar      1 <0>         0.0000
      7 C7          1.8934   -0.2148    5.7787 C.2       1 <0>         0.0000
      8 C8          1.9325   -1.0133    2.6768 C.2       1 <0>         0.0000
      9 C9         -4.0623    0.8550    1.3177 C.3       1 <0>         0.0000
     10 C10        -3.5584   -1.5885    1.6583 C.3       1 <0>         0.0000
     11 C11         0.2195    0.8307    0.9188 C.3       1 <0>         0.0000
     12 C12        -1.0001    1.1700    0.0549 C.3       1 <0>         0.0000
     13 C13         2.3649   -0.5352    1.2935 C.3       1 <0>         0.0000
     14 C14         1.1534   -0.2750    0.3710 C.3       1 <0>         0.0000
     15 C15        -2.9754   -0.2124    1.3599 C.3       1 <0>         0.0000
     16 N1          1.6681    0.0834   -0.9557 N.3       1 <0>         0.0000
     17 N2          2.6023   -1.0670    4.9540 N.am      1 <0>         0.0000
     18 N3          2.8469   -0.6810    3.6590 N.am      1 <0>         0.0000
     19 O1          1.4534    0.8829    5.4461 O.2       1 <0>         0.0000
     20 O2          0.8915   -1.6405    2.8632 O.2       1 <0>         0.0000
     21 O3          3.2186   -1.5159    0.7230 O.3       1 <0>         0.0000
     22 S1         -2.0977   -0.2515   -0.2193 S.3       1 <0>         0.0000
     23 Cl1         1.0368    0.8507   10.7913 Cl        1 <0>         0.0000
     24 H1          1.3265   -3.6129    8.8975 H         1 <0>         0.0000
     25 H2          1.7296   -2.7965    6.6014 H         1 <0>         0.0000
     26 H3          1.0200   -2.0156   10.7537 H         1 <0>         0.0000
     27 H4          1.5203    1.2667    8.0072 H         1 <0>         0.0000
     28 H5         -4.8019    0.6148    0.5457 H         1 <0>         0.0000
     29 H6         -4.5966    0.9180    2.2722 H         1 <0>         0.0000
     30 H7         -3.6542    1.8453    1.0855 H         1 <0>         0.0000
     31 H8         -4.2902   -1.8663    0.8915 H         1 <0>         0.0000
     32 H9         -4.0769   -1.6012    2.6234 H         1 <0>         0.0000
     33 H10        -2.7856   -2.3656    1.6725 H         1 <0>         0.0000
     34 H11        -0.1531    0.5335    1.9082 H         1 <0>         0.0000
     35 H12         0.7975    1.7493    1.0822 H         1 <0>         0.0000
     36 H13        -0.6573    1.5138   -0.9268 H         1 <0>         0.0000
     37 H14        -1.5832    1.9849    0.4933 H         1 <0>         0.0000
     38 H15         2.9484    0.3859    1.4229 H         1 <0>         0.0000
     39 H16         0.5915   -1.2082    0.2610 H         1 <0>         0.0000
     40 H17        -2.2476    0.0460    2.1366 H         1 <0>         0.0000
     41 H18         0.8845    0.1717   -1.5934 H         1 <0>         0.0000
     42 H19         2.2416   -0.6802   -1.2969 H         1 <0>         0.0000
     43 H20         2.9356   -1.9607    5.2985 H         1 <0>         0.0000
     44 H21         3.6858   -0.1599    3.4266 H         1 <0>         0.0000
     45 H22         2.7041   -2.3378    0.6655 H         1 <0>         0.0000
@<TRIPOS>BOND
     1    1    2 ar
     2    1    3 ar
     3    2    5 ar
     4    3    6 ar
     5    4    5 ar
     6    4    6 ar
     7    5    7 1
     8    6   23 1
     9    7   17 am
    10    7   19 2
    11    8   13 1
    12    8   18 am
    13    8   20 2
    14    9   15 1
    15   10   15 1
    16   11   12 1
    17   11   14 1
    18   12   22 1
    19   13   14 1
    20   13   21 1
    21   14   16 1
    22   15   22 1
    23   17   18 1
    24    1   24 1
    25    2   25 1
    26    3   26 1
    27    4   27 1
    28    9   28 1
    29    9   29 1
    30    9   30 1
    31   10   31 1
    32   10   32 1
    33   10   33 1
    34   11   34 1
    35   11   35 1
    36   12   36 1
    37   12   37 1
    38   13   38 1
    39   14   39 1
    40   15   40 1
    41   16   41 1
    42   16   42 1
    43   17   43 1
    44   18   44 1
    45   21   45 1
@<TRIPOS>MOLECULE
LIGAND
   45    45     0     0     0
SMALL
NO_CHARGES

@<TRIPOS>ATOM
      1 C1         -0.8568   -0.8437    8.7635 C.ar      1 <0>         0.0000
      2 C2         -0.6134   -0.4635    7.4437 C.ar      1 <0>         0.0000
      3 C3          0.2081   -1.1727    9.6022 C.ar      1 <0>         0.0000
      4 C4          1.7598   -0.7415    7.8013 C.ar      1 <0>         0.0000
      5 C5          0.6949   -0.4125    6.9626 C.ar      1 <0>         0.0000
      6 C6          1.5164   -1.1216    9.1211 C.ar      1 <0>         0.0000
      7 C7          0.9532   -0.0081    5.5563 C.2       1 <0>         0.0000
      8 C8          1.9325   -1.0133    2.6768 C.2       1 <0>         0.0000
      9 C9         -4.0623    0.8550    1.3177 C.3       1 <0>         0.0000
     10 C10        -3.5584   -1.5885    1.6583 C.3       1 <0>         0.0000
     11 C11         0.2195    0.8307    0.9188 C.3       1 <0>         0.0000
     12 C12        -1.0001    1.1700    0.0549 C.3       1 <0>         0.0000
     13 C13         2.3649   -0.5352    1.2935 C.3       1 <0>         0.0000
     14 C14         1.1534   -0.2750    0.3710 C.3       1 <0>         0.0000
     15 C15        -2.9754   -0.2124    1.3599 C.3       1 <0>         0.0000
     16 N1          1.6681    0.0834   -0.9557 N.3       1 <0>         0.0000
     17 N2          2.1084   -0.5131    4.9911 N.am      1 <0>         0.0000
     18 N3          2.3999   -0.1941    3.6876 N.am      1 <0>         0.0000
     19 O1          0.1465    0.7178    4.9806 O.2       1 <0>         0.0000
     20 O2          1.2610   -2.0296    2.8442 O.2       1 <0>         0.0000
     21 O3          3.2186   -1.5159    0.7230 O.3       1 <0>         0.0000
     22 S1         -2.0977   -0.2515   -0.2193 S.3       1 <0>         0.0000
     23 Cl1         2.8299   -1.5272   10.1568 Cl        1 <0>         0.0000
     24 H1         -1.8754   -0.8830    9.1379 H         1 <0>         0.0000
     25 H2         -1.4514   -0.2096    6.7997 H         1 <0>         0.0000
     26 H3          0.0031   -1.4671   10.6283 H         1 <0>         0.0000
     27 H4          2.7794   -0.7003    7.4234 H         1 <0>         0.0000
     28 H5         -4.8019    0.6148    0.5457 H         1 <0>         0.0000
     29 H6         -4.5966    0.9180    2.2722 H         1 <0>         0.0000
     30 H7         -3.6542    1.8453    1.0855 H         1 <0>         0.0000
     31 H8         -4.2902   -1.8663    0.8915 H         1 <0>         0.0000
     32 H9         -4.0769   -1.6012    2.6234 H         1 <0>         0.0000
     33 H10        -2.7856   -2.3656    1.6725 H         1 <0>         0.0000
     34 H11        -0.1531    0.5335    1.9082 H         1 <0>         0.0000
     35 H12         0.7975    1.7493    1.0822 H         1 <0>         0.0000
     36 H13        -0.6573    1.5138   -0.9268 H         1 <0>         0.0000
     37 H14        -1.5832    1.9849    0.4933 H         1 <0>         0.0000
     38 H15         2.9484    0.3859    1.4229 H         1 <0>         0.0000
     39 H16         0.5915   -1.2082    0.2610 H         1 <0>         0.0000
     40 H17        -2.2476    0.0460    2.1366 H         1 <0>         0.0000
     41 H18         0.8845    0.1717   -1.5934 H         1 <0>         0.0000
     42 H19         2.2416   -0.6802   -1.2969 H         1 <0>         0.0000
     43 H20         2.7293   -1.1081    5.5287 H         1 <0>         0.0000
     44 H21         2.9499    0.6302    3.4697 H         1 <0>         0.0000
     45 H22         2.7041   -2.3378    0.6655 H         1 <0>         0.0000
@<TRIPOS>BOND
     1    1    2 ar
     2    1    3 ar
     3    2    5 ar
     4    3    6 ar
     5    4    5 ar
     6    4    6 ar
     7    5    7 1
     8    6   23 1
     9    7   17 am
    10    7   19 2
    11    8   13 1
    12    8   18 am
    13    8   20 2
    14    9   15 1
    15   10   15 1
    16   11   12 1
    17   11   14 1
    18   12   22 1
    19   13   14 1
    20   13   21 1
    21   14   16 1
    22   15   22 1
    23   17   18 1
    24    1   24 1
    25    2   25 1
    26    3   26 1
    27    4   27 1
    28    9   28 1
    29    9   29 1
    30    9   30 1
    31   10   31 1
    32   10   32 1
    33   10   33 1
    34   11   34 1
    35   11   35 1
    36   12   36 1
    37   12   37 1
    38   13   38 1
    39   14   39 1
    40   15   40 1
    41   16   41 1
    42   16   42 1
    43   17   43 1
    44   18   44 1
    45   21   45 1
@<TRIPOS>MOLECULE
LIGAND
   45    45     0     0     0
SMALL
NO_CHARGES

@<TRIPOS>ATOM
      1 C1          2.3084   -2.0825    9.0344 C.ar      1 <0>         0.0000
      2 C2          2.5351   -1.6185    7.7387 C.ar      1 <0>         0.0000
      3 C3          1.1971   -1.6371    9.7503 C.ar      1 <0>         0.0000
      4 C4          0.5395   -0.2636    7.8747 C.ar      1 <0>         0.0000
      5 C5          1.6507   -0.7090    7.1588 C.ar      1 <0>         0.0000
      6 C6          0.3127   -0.7276    9.1704 C.ar      1 <0>         0.0000
      7 C7          1.8934   -0.2148    5.7787 C.2       1 <0>         0.0000
      8 C8          1.9325   -1.0133    2.6768 C.2       1 <0>         0.0000
      9 C9         -4.0623    0.8550    1.3177 C.3       1 <0>         0.0000
     10 C10        -3.5584   -1.5885    1.6583 C.3       1 <0>         0.0000
     11 C11         0.2195    0.8307    0.9188 C.3       1 <0>         0.0000
     12 C12        -1.0001    1.1700    0.0549 C.3       1 <0>         0.0000
     13 C13         2.3649   -0.5352    1.2935 C.3       1 <0>         0.0000
     14 C14         1.1534   -0.2750    0.3710 C.3       1 <0>         0.0000
     15 C15        -2.9754   -0.2124    1.3599 C.3       1 <0>         0.0000
     16 N1          1.6681    0.0834   -0.9557 N.3       1 <0>         0.0000
     17 N2          2.6023   -1.0670    4.9540 N.am      1 <0>         0.0000
     18 N3          2.8469   -0.6810    3.6590 N.am      1 <0>         0.0000
     19 O1          1.4534    0.8829    5.4461 O.2       1 <0>         0.0000
     20 O2          0.8915   -1.6405    2.8632 O.2       1 <0>         0.0000
     21 O3          3.2186   -1.5159    0.7230 O.3       1 <0>         0.0000
     22 S1         -2.0977   -0.2515   -0.2193 S.3       1 <0>         0.0000
     23 Cl1        -1.0586   -0.1788   10.0541 Cl        1 <0>         0.0000
     24 H1          2.9969   -2.7909    9.4856 H         1 <0>         0.0000
     25 H2          3.4046   -1.9729    7.1910 H         1 <0>         0.0000
     26 H3          1.0333   -2.0074   10.7590 H         1 <0>         0.0000
     27 H4         -0.1491    0.4455    7.4196 H         1 <0>         0.0000
     28 H5         -4.8019    0.6148    0.5457 H         1 <0>         0.0000
     29 H6         -4.5966    0.9180    2.2722 H         1 <0>         0.0000
     30 H7         -3.6542    1.8453    1.0855 H         1 <0>         0.0000
     31 H8         -4.2902   -1.8663    0.8915 H         1 <0>         0.0000
     32 H9         -4.0769   -1.6012    2.6234 H         1 <0>         0.0000
     33 H10        -2.7856   -2.3656    1.6725 H         1 <0>         0.0000
     34 H11        -0.1531    0.5335    1.9082 H         1 <0>         0.0000
     35 H12         0.7975    1.7493    1.0822 H         1 <0>         0.0000
     36 H13        -0.6573    1.5138   -0.9268 H         1 <0>         0.0000
     37 H14        -1.5832    1.9849    0.4933 H         1 <0>         0.0000
     38 H15         2.9484    0.3859    1.4229 H         1 <0>         0.0000
     39 H16         0.5915   -1.2082    0.2610 H         1 <0>         0.0000
     40 H17        -2.2476    0.0460    2.1366 H         1 <0>         0.0000
     41 H18         0.8845    0.1717   -1.5934 H         1 <0>         0.0000
     42 H19         2.2416   -0.6802   -1.2969 H         1 <0>         0.0000
     43 H20         2.9356   -1.9607    5.2985 H         1 <0>         0.0000
     44 H21         3.6858   -0.1599    3.4266 H         1 <0>         0.0000
     45 H22         2.7041   -2.3378    0.6655 H         1 <0>         0.0000
@<TRIPOS>BOND
     1    1    2 ar
     2    1    3 ar
     3    2    5 ar
     4    3    6 ar
     5    4    5 ar
     6    4    6 ar
     7    5    7 1
     8    6   23 1
     9    7   17 am
    10    7   19 2
    11    8   13 1
    12    8   18 am
    13    8   20 2
    14    9   15 1
    15   10   15 1
    16   11   12 1
    17   11   14 1
    18   12   22 1
    19   13   14 1
    20   13   21 1
    21   14   16 1
    22   15   22 1
    23   17   18 1
    24    1   24 1
    25    2   25 1
    26    3   26 1
    27    4   27 1
    28    9   28 1
    29    9   29 1
    30    9   30 1
    31   10   31 1
    32   10   32 1
    33   10   33 1
    34   11   34 1
    35   11   35 1
    36   12   36 1
    37   12   37 1
    38   13   38 1
    39   14   39 1
    40   15   40 1
    41   16   41 1
    42   16   42 1
    43   17   43 1
    44   18   44 1
    45   21   45 1
@<TRIPOS>MOLECULE
LIGAND
   45    45     0     0     0
SMALL
NO_CHARGES

@<TRIPOS>ATOM
      1 C1          0.3537   -1.6987    8.6788 C.ar      1 <0>         0.0000
      2 C2          0.6500   -1.3890    7.3514 C.ar      1 <0>         0.0000
      3 C3         -0.8291   -1.2362    9.2556 C.ar      1 <0>         0.0000
      4 C4         -1.4194   -0.1541    7.1777 C.ar      1 <0>         0.0000
      5 C5         -0.2366   -0.6167    6.6009 C.ar      1 <0>         0.0000
      6 C6         -1.7156   -0.4639    8.5051 C.ar      1 <0>         0.0000
      7 C7          0.0801   -0.2867    5.1871 C.2       1 <0>         0.0000
      8 C8          1.9325   -1.0133    2.6768 C.2       1 <0>         0.0000
      9 C9         -4.1299   -0.4675   -2.0276 C.3       1 <0>         0.0000
     10 C10        -4.2566    1.4118   -0.3565 C.3       1 <0>         0.0000
     11 C11         0.2195    0.8307    0.9188 C.3       1 <0>         0.0000
     12 C12        -1.0001    1.1700    0.0549 C.3       1 <0>         0.0000
     13 C13         2.3649   -0.5352    1.2935 C.3       1 <0>         0.0000
     14 C14         1.1534   -0.2750    0.3710 C.3       1 <0>         0.0000
     15 C15        -3.3416    0.5718   -1.2395 C.3       1 <0>         0.0000
     16 N1          1.6681    0.0834   -0.9557 N.3       1 <0>         0.0000
     17 N2          1.4238   -0.2520    4.8674 N.am      1 <0>         0.0000
     18 N3          1.7877    0.0290    3.5734 N.am      1 <0>         0.0000
     19 O1         -0.8375   -0.0833    4.3961 O.2       1 <0>         0.0000
     20 O2          1.7602   -2.2018    2.9407 O.2       1 <0>         0.0000
     21 O3          3.2186   -1.5159    0.7230 O.3       1 <0>         0.0000
     22 S1         -2.0977   -0.2515   -0.2193 S.3       1 <0>         0.0000
     23 Cl1        -3.1752    0.1061    9.2174 Cl        1 <0>         0.0000
     24 H1          1.0439   -2.3003    9.2628 H         1 <0>         0.0000
     25 H2          1.5748   -1.7550    6.9130 H         1 <0>         0.0000
     26 H3         -1.0465   -1.4855   10.2910 H         1 <0>         0.0000
     27 H4         -2.1094    0.4477    6.5897 H         1 <0>         0.0000
     28 H5         -4.6663   -1.1363   -1.3453 H         1 <0>         0.0000
     29 H6         -4.8772    0.0053   -2.6747 H         1 <0>         0.0000
     30 H7         -3.4774   -1.0886   -2.6519 H         1 <0>         0.0000
     31 H8         -4.7949    0.7719    0.3515 H         1 <0>         0.0000
     32 H9         -5.0077    1.9429   -0.9517 H         1 <0>         0.0000
     33 H10        -3.6957    2.1500    0.2280 H         1 <0>         0.0000
     34 H11        -0.1531    0.5335    1.9082 H         1 <0>         0.0000
     35 H12         0.7975    1.7493    1.0822 H         1 <0>         0.0000
     36 H13        -0.6573    1.5138   -0.9268 H         1 <0>         0.0000
     37 H14        -1.5832    1.9849    0.4933 H         1 <0>         0.0000
     38 H15         2.9484    0.3859    1.4229 H         1 <0>         0.0000
     39 H16         0.5915   -1.2082    0.2610 H         1 <0>         0.0000
     40 H17        -2.8138    1.2291   -1.9386 H         1 <0>         0.0000
     41 H18         0.8845    0.1717   -1.5934 H         1 <0>         0.0000
     42 H19         2.2416   -0.6802   -1.2969 H         1 <0>         0.0000
     43 H20         2.1281   -0.4306    5.5750 H         1 <0>         0.0000
     44 H21         1.9478    0.9869    3.2798 H         1 <0>         0.0000
     45 H22         2.7041   -2.3378    0.6655 H         1 <0>         0.0000
@<TRIPOS>BOND
     1    1    2 ar
     2    1    3 ar
     3    2    5 ar
     4    3    6 ar
     5    4    5 ar
     6    4    6 ar
     7    5    7 1
     8    6   23 1
     9    7   17 am
    10    7   19 2
    11    8   13 1
    12    8   18 am
    13    8   20 2
    14    9   15 1
    15   10   15 1
    16   11   12 1
    17   11   14 1
    18   12   22 1
    19   13   14 1
    20   13   21 1
    21   14   16 1
    22   15   22 1
    23   17   18 1
    24    1   24 1
    25    2   25 1
    26    3   26 1
    27    4   27 1
    28    9   28 1
    29    9   29 1
    30    9   30 1
    31   10   31 1
    32   10   32 1
    33   10   33 1
    34   11   34 1
    35   11   35 1
    36   12   36 1
    37   12   37 1
    38   13   38 1
    39   14   39 1
    40   15   40 1
    41   16   41 1
    42   16   42 1
    43   17   43 1
    44   18   44 1
    45   21   45 1
@<TRIPOS>MOLECULE
LIGAND
   45    45     0     0     0
SMALL
NO_CHARGES

@<TRIPOS>ATOM
      1 C1          0.2436   -1.5853    8.6879 C.ar      1 <0>         0.0000
      2 C2          0.6848   -1.3243    7.3907 C.ar      1 <0>         0.0000
      3 C3          1.0636   -1.2882    9.7766 C.ar      1 <0>         0.0000
      4 C4          2.7661   -0.4692    8.2707 C.ar      1 <0>         0.0000
      5 C5          1.9460   -0.7663    7.1821 C.ar      1 <0>         0.0000
      6 C6          2.3248   -0.7302    9.5679 C.ar      1 <0>         0.0000
      7 C7          2.4155   -0.4891    5.7998 C.2       1 <0>         0.0000
      8 C8          1.9325   -1.0133    2.6768 C.2       1 <0>         0.0000
      9 C9         -2.8396    0.6809   -2.6742 C.3       1 <0>         0.0000
     10 C10        -4.6560   -0.1960   -1.1670 C.3       1 <0>         0.0000
     11 C11         0.2195    0.8307    0.9188 C.3       1 <0>         0.0000
     12 C12        -1.0001    1.1700    0.0549 C.3       1 <0>         0.0000
     13 C13         2.3649   -0.5352    1.2935 C.3       1 <0>         0.0000
     14 C14         1.1534   -0.2750    0.3710 C.3       1 <0>         0.0000
     15 C15        -3.3416    0.5718   -1.2395 C.3       1 <0>         0.0000
     16 N1          1.6681    0.0834   -0.9557 N.3       1 <0>         0.0000
     17 N2          1.4238   -0.2520    4.8674 N.am      1 <0>         0.0000
     18 N3          1.7877    0.0290    3.5734 N.am      1 <0>         0.0000
     19 O1          3.6213   -0.4699    5.5658 O.2       1 <0>         0.0000
     20 O2          1.7602   -2.2018    2.9407 O.2       1 <0>         0.0000
     21 O3          3.2186   -1.5159    0.7230 O.3       1 <0>         0.0000
     22 S1         -2.0977   -0.2515   -0.2193 S.3       1 <0>         0.0000
     23 Cl1         3.3359   -0.3635   10.9117 Cl        1 <0>         0.0000
     24 H1         -0.7386   -2.0195    8.8502 H         1 <0>         0.0000
     25 H2          0.0368   -1.5602    6.5505 H         1 <0>         0.0000
     26 H3          0.7063   -1.4972   10.7816 H         1 <0>         0.0000
     27 H4          3.7493   -0.0335    8.1049 H         1 <0>         0.0000
     28 H5         -2.6847   -0.3167   -3.1002 H         1 <0>         0.0000
     29 H6         -3.5648    1.1984   -3.3121 H         1 <0>         0.0000
     30 H7         -1.8850    1.2160   -2.7338 H         1 <0>         0.0000
     31 H8         -4.5291   -1.2071   -1.5698 H         1 <0>         0.0000
     32 H9         -5.4375    0.2943   -1.7580 H         1 <0>         0.0000
     33 H10        -5.0153   -0.2952   -0.1363 H         1 <0>         0.0000
     34 H11        -0.1531    0.5335    1.9082 H         1 <0>         0.0000
     35 H12         0.7975    1.7493    1.0822 H         1 <0>         0.0000
     36 H13        -0.6573    1.5138   -0.9268 H         1 <0>         0.0000
     37 H14        -1.5832    1.9849    0.4933 H         1 <0>         0.0000
     38 H15         2.9484    0.3859    1.4229 H         1 <0>         0.0000
     39 H16         0.5915   -1.2082    0.2610 H         1 <0>         0.0000
     40 H17        -3.4899    1.5778   -0.8328 H         1 <0>         0.0000
     41 H18         0.8845    0.1717   -1.5934 H         1 <0>         0.0000
     42 H19         2.2416   -0.6802   -1.2969 H         1 <0>         0.0000
     43 H20         0.4458   -0.2847    5.1337 H         1 <0>         0.0000
     44 H21         1.9478    0.9869    3.2798 H         1 <0>         0.0000
     45 H22         2.7041   -2.3378    0.6655 H         1 <0>         0.0000
@<TRIPOS>BOND
     1    1    2 ar
     2    1    3 ar
     3    2    5 ar
     4    3    6 ar
     5    4    5 ar
     6    4    6 ar
     7    5    7 1
     8    6   23 1
     9    7   17 am
    10    7   19 2
    11    8   13 1
    12    8   18 am
    13    8   20 2
    14    9   15 1
    15   10   15 1
    16   11   12 1
    17   11   14 1
    18   12   22 1
    19   13   14 1
    20   13   21 1
    21   14   16 1
    22   15   22 1
    23   17   18 1
    24    1   24 1
    25    2   25 1
    26    3   26 1
    27    4   27 1
    28    9   28 1
    29    9   29 1
    30    9   30 1
    31   10   31 1
    32   10   32 1
    33   10   33 1
    34   11   34 1
    35   11   35 1
    36   12   36 1
    37   12   37 1
    38   13   38 1
    39   14   39 1
    40   15   40 1
    41   16   41 1
    42   16   42 1
    43   17   43 1
    44   18   44 1
    45   21   45 1
@<TRIPOS>MOLECULE
LIGAND
   45    45     0     0     0
SMALL
NO_CHARGES

@<TRIPOS>ATOM
      1 C1          0.3098   -0.7270    9.1684 C.ar      1 <0>         0.0000
      2 C2          0.5387   -0.2630    7.8731 C.ar      1 <0>         0.0000
      3 C3          1.1930   -1.6369    9.7496 C.ar      1 <0>         0.0000
      4 C4          2.5339   -1.6190    7.7400 C.ar      1 <0>         0.0000
      5 C5          1.6507   -0.7090    7.1588 C.ar      1 <0>         0.0000
      6 C6          2.3050   -2.0829    9.0354 C.ar      1 <0>         0.0000
      7 C7          1.8934   -0.2148    5.7787 C.2       1 <0>         0.0000
      8 C8          1.9325   -1.0133    2.6768 C.2       1 <0>         0.0000
      9 C9         -4.0623    0.8550    1.3177 C.3       1 <0>         0.0000
     10 C10        -3.5584   -1.5885    1.6583 C.3       1 <0>         0.0000
     11 C11         0.2195    0.8307    0.9188 C.3       1 <0>         0.0000
     12 C12        -1.0001    1.1700    0.0549 C.3       1 <0>         0.0000
     13 C13         2.3649   -0.5352    1.2935 C.3       1 <0>         0.0000
     14 C14         1.1534   -0.2750    0.3710 C.3       1 <0>         0.0000
     15 C15        -2.9754   -0.2124    1.3599 C.3       1 <0>         0.0000
     16 N1          1.6681    0.0834   -0.9557 N.3       1 <0>         0.0000
     17 N2          2.6023   -1.0670    4.9540 N.am      1 <0>         0.0000
     18 N3          2.8469   -0.6810    3.6590 N.am      1 <0>         0.0000
     19 O1          1.4534    0.8829    5.4461 O.2       1 <0>         0.0000
     20 O2          0.8915   -1.6405    2.8632 O.2       1 <0>         0.0000
     21 O3          3.2186   -1.5159    0.7230 O.3       1 <0>         0.0000
     22 S1         -2.0977   -0.2515   -0.2193 S.3       1 <0>         0.0000
     23 Cl1         3.3947   -3.2053    9.7533 Cl        1 <0>         0.0000
     24 H1         -0.5558   -0.3793    9.7245 H         1 <0>         0.0000
     25 H2         -0.1567    0.4458    7.4309 H         1 <0>         0.0000
     26 H3          1.0018   -1.9896   10.7598 H         1 <0>         0.0000
     27 H4          3.4009   -1.9648    7.1806 H         1 <0>         0.0000
     28 H5         -4.8019    0.6148    0.5457 H         1 <0>         0.0000
     29 H6         -4.5966    0.9180    2.2722 H         1 <0>         0.0000
     30 H7         -3.6542    1.8453    1.0855 H         1 <0>         0.0000
     31 H8         -4.2902   -1.8663    0.8915 H         1 <0>         0.0000
     32 H9         -4.0769   -1.6012    2.6234 H         1 <0>         0.0000
     33 H10        -2.7856   -2.3656    1.6725 H         1 <0>         0.0000
     34 H11        -0.1531    0.5335    1.9082 H         1 <0>         0.0000
     35 H12         0.7975    1.7493    1.0822 H         1 <0>         0.0000
     36 H13        -0.6573    1.5138   -0.9268 H         1 <0>         0.0000
     37 H14        -1.5832    1.9849    0.4933 H         1 <0>         0.0000
     38 H15         2.9484    0.3859    1.4229 H         1 <0>         0.0000
     39 H16         0.5915   -1.2082    0.2610 H         1 <0>         0.0000
     40 H17        -2.2476    0.0460    2.1366 H         1 <0>         0.0000
     41 H18         0.8845    0.1717   -1.5934 H         1 <0>         0.0000
     42 H19         2.2416   -0.6802   -1.2969 H         1 <0>         0.0000
     43 H20         2.9356   -1.9607    5.2985 H         1 <0>         0.0000
     44 H21         3.6858   -0.1599    3.4266 H         1 <0>         0.0000
     45 H22         2.7041   -2.3378    0.6655 H         1 <0>         0.0000
@<TRIPOS>BOND
     1    1    2 ar
     2    1    3 ar
     3    2    5 ar
     4    3    6 ar
     5    4    5 ar
     6    4    6 ar
     7    5    7 1
     8    6   23 1
     9    7   17 am
    10    7   19 2
    11    8   13 1
    12    8   18 am
    13    8   20 2
    14    9   15 1
    15   10   15 1
    16   11   12 1
    17   11   14 1
    18   12   22 1
    19   13   14 1
    20   13   21 1
    21   14   16 1
    22   15   22 1
    23   17   18 1
    24    1   24 1
    25    2   25 1
    26    3   26 1
    27    4   27 1
    28    9   28 1
    29    9   29 1
    30    9   30 1
    31   10   31 1
    32   10   32 1
    33   10   33 1
    34   11   34 1
    35   11   35 1
    36   12   36 1
    37   12   37 1
    38   13   38 1
    39   14   39 1
    40   15   40 1
    41   16   41 1
    42   16   42 1
    43   17   43 1
    44   18   44 1
    45   21   45 1
@<TRIPOS>MOLECULE
LIGAND
   45    45     0     0     0
SMALL
NO_CHARGES

@<TRIPOS>ATOM
      1 C1         -0.1690   -1.4033    8.5959 C.ar      1 <0>         0.0000
      2 C2          0.1811   -1.0431    7.2947 C.ar      1 <0>         0.0000
      3 C3         -0.3818   -0.4171    9.5593 C.ar      1 <0>         0.0000
      4 C4          0.1059    1.2894    7.9200 C.ar      1 <0>         0.0000
      5 C5          0.3186    0.3032    6.9567 C.ar      1 <0>         0.0000
      6 C6         -0.2443    0.9292    9.2213 C.ar      1 <0>         0.0000
      7 C7          0.6923    0.6859    5.5704 C.2       1 <0>         0.0000
      8 C8          1.9325   -1.0133    2.6768 C.2       1 <0>         0.0000
      9 C9         -1.3566    4.2423   -1.1718 C.3       1 <0>         0.0000
     10 C10        -1.3823    5.0762    1.2040 C.3       1 <0>         0.0000
     11 C11         0.2195    0.8307    0.9188 C.3       1 <0>         0.0000
     12 C12        -1.0001    1.1700    0.0549 C.3       1 <0>         0.0000
     13 C13         2.3649   -0.5352    1.2935 C.3       1 <0>         0.0000
     14 C14         1.1534   -0.2750    0.3710 C.3       1 <0>         0.0000
     15 C15        -1.0699    3.9009    0.2855 C.3       1 <0>         0.0000
     16 N1          1.6681    0.0834   -0.9557 N.3       1 <0>         0.0000
     17 N2          1.4238   -0.2520    4.8674 N.am      1 <0>         0.0000
     18 N3          1.7877    0.0290    3.5734 N.am      1 <0>         0.0000
     19 O1          0.3313    1.7736    5.1279 O.2       1 <0>         0.0000
     20 O2          1.7602   -2.2018    2.9407 O.2       1 <0>         0.0000
     21 O3          3.2186   -1.5159    0.7230 O.3       1 <0>         0.0000
     22 S1         -2.0492    2.4644    0.7791 S.3       1 <0>         0.0000
     23 Cl1        -0.5074    2.1455   10.4103 Cl        1 <0>         0.0000
     24 H1         -0.2763   -2.4515    8.8588 H         1 <0>         0.0000
     25 H2          0.3444   -1.8206    6.5528 H         1 <0>         0.0000
     26 H3         -0.6541   -0.7128   10.5691 H         1 <0>         0.0000
     27 H4          0.2134    2.3388    7.6534 H         1 <0>         0.0000
     28 H5         -2.4105    4.5137   -1.2989 H         1 <0>         0.0000
     29 H6         -0.7576    5.0967   -1.5064 H         1 <0>         0.0000
     30 H7         -1.1520    3.3963   -1.8378 H         1 <0>         0.0000
     31 H8         -2.4367    5.3604    1.1134 H         1 <0>         0.0000
     32 H9         -0.7841    5.9563    0.9431 H         1 <0>         0.0000
     33 H10        -1.1964    4.8333    2.2564 H         1 <0>         0.0000
     34 H11        -0.1531    0.5335    1.9082 H         1 <0>         0.0000
     35 H12         0.7975    1.7493    1.0822 H         1 <0>         0.0000
     36 H13        -1.6176    0.2727   -0.0585 H         1 <0>         0.0000
     37 H14        -0.7009    1.4813   -0.9501 H         1 <0>         0.0000
     38 H15         2.9484    0.3859    1.4229 H         1 <0>         0.0000
     39 H16         0.5915   -1.2082    0.2610 H         1 <0>         0.0000
     40 H17        -0.0132    3.6330    0.3910 H         1 <0>         0.0000
     41 H18         0.8845    0.1717   -1.5934 H         1 <0>         0.0000
     42 H19         2.2416   -0.6802   -1.2969 H         1 <0>         0.0000
     43 H20         1.6871   -1.1312    5.2989 H         1 <0>         0.0000
     44 H21         1.9478    0.9869    3.2798 H         1 <0>         0.0000
     45 H22         2.7041   -2.3378    0.6655 H         1 <0>         0.0000
@<TRIPOS>BOND
     1    1    2 ar
     2    1    3 ar
     3    2    5 ar
     4    3    6 ar
     5    4    5 ar
     6    4    6 ar
     7    5    7 1
     8    6   23 1
     9    7   17 am
    10    7   19 2
    11    8   13 1
    12    8   18 am
    13    8   20 2
    14    9   15 1
    15   10   15 1
    16   11   12 1
    17   11   14 1
    18   12   22 1
    19   13   14 1
    20   13   21 1
    21   14   16 1
    22   15   22 1
    23   17   18 1
    24    1   24 1
    25    2   25 1
    26    3   26 1
    27    4   27 1
    28    9   28 1
    29    9   29 1
    30    9   30 1
    31   10   31 1
    32   10   32 1
    33   10   33 1
    34   11   34 1
    35   11   35 1
    36   12   36 1
    37   12   37 1
    38   13   38 1
    39   14   39 1
    40   15   40 1
    41   16   41 1
    42   16   42 1
    43   17   43 1
    44   18   44 1
    45   21   45 1
@<TRIPOS>MOLECULE
LIGAND
   45    45     0     0     0
SMALL
NO_CHARGES

@<TRIPOS>ATOM
      1 C1          0.3537   -1.6987    8.6788 C.ar      1 <0>         0.0000
      2 C2          0.6500   -1.3890    7.3514 C.ar      1 <0>         0.0000
      3 C3         -0.8291   -1.2362    9.2556 C.ar      1 <0>         0.0000
      4 C4         -1.4194   -0.1541    7.1777 C.ar      1 <0>         0.0000
      5 C5         -0.2366   -0.6167    6.6009 C.ar      1 <0>         0.0000
      6 C6         -1.7156   -0.4639    8.5051 C.ar      1 <0>         0.0000
      7 C7          0.0801   -0.2867    5.1871 C.2       1 <0>         0.0000
      8 C8          1.9325   -1.0133    2.6768 C.2       1 <0>         0.0000
      9 C9         -1.3566    4.2423   -1.1718 C.3       1 <0>         0.0000
     10 C10        -1.3823    5.0762    1.2040 C.3       1 <0>         0.0000
     11 C11         0.2195    0.8307    0.9188 C.3       1 <0>         0.0000
     12 C12        -1.0001    1.1700    0.0549 C.3       1 <0>         0.0000
     13 C13         2.3649   -0.5352    1.2935 C.3       1 <0>         0.0000
     14 C14         1.1534   -0.2750    0.3710 C.3       1 <0>         0.0000
     15 C15        -1.0699    3.9009    0.2855 C.3       1 <0>         0.0000
     16 N1          1.6681    0.0834   -0.9557 N.3       1 <0>         0.0000
     17 N2          1.4238   -0.2520    4.8674 N.am      1 <0>         0.0000
     18 N3          1.7877    0.0290    3.5734 N.am      1 <0>         0.0000
     19 O1         -0.8375   -0.0833    4.3961 O.2       1 <0>         0.0000
     20 O2          1.7602   -2.2018    2.9407 O.2       1 <0>         0.0000
     21 O3          3.2186   -1.5159    0.7230 O.3       1 <0>         0.0000
     22 S1         -2.0492    2.4644    0.7791 S.3       1 <0>         0.0000
     23 Cl1        -3.1752    0.1061    9.2174 Cl        1 <0>         0.0000
     24 H1          1.0439   -2.3003    9.2628 H         1 <0>         0.0000
     25 H2          1.5748   -1.7550    6.9130 H         1 <0>         0.0000
     26 H3         -1.0465   -1.4855   10.2910 H         1 <0>         0.0000
     27 H4         -2.1094    0.4477    6.5897 H         1 <0>         0.0000
     28 H5         -2.4105    4.5137   -1.2989 H         1 <0>         0.0000
     29 H6         -0.7576    5.0967   -1.5064 H         1 <0>         0.0000
     30 H7         -1.1520    3.3963   -1.8378 H         1 <0>         0.0000
     31 H8         -2.4367    5.3604    1.1134 H         1 <0>         0.0000
     32 H9         -0.7841    5.9563    0.9431 H         1 <0>         0.0000
     33 H10        -1.1964    4.8333    2.2564 H         1 <0>         0.0000
     34 H11        -0.1531    0.5335    1.9082 H         1 <0>         0.0000
     35 H12         0.7975    1.7493    1.0822 H         1 <0>         0.0000
     36 H13        -1.6176    0.2727   -0.0585 H         1 <0>         0.0000
     37 H14        -0.7009    1.4813   -0.9501 H         1 <0>         0.0000
     38 H15         2.9484    0.3859    1.4229 H         1 <0>         0.0000
     39 H16         0.5915   -1.2082    0.2610 H         1 <0>         0.0000
     40 H17        -0.0132    3.6330    0.3910 H         1 <0>         0.0000
     41 H18         0.8845    0.1717   -1.5934 H         1 <0>         0.0000
     42 H19         2.2416   -0.6802   -1.2969 H         1 <0>         0.0000
     43 H20         2.1281   -0.4306    5.5750 H         1 <0>         0.0000
     44 H21         1.9478    0.9869    3.2798 H         1 <0>         0.0000
     45 H22         2.7041   -2.3378    0.6655 H         1 <0>         0.0000
@<TRIPOS>BOND
     1    1    2 ar
     2    1    3 ar
     3    2    5 ar
     4    3    6 ar
     5    4    5 ar
     6    4    6 ar
     7    5    7 1
     8    6   23 1
     9    7   17 am
    10    7   19 2
    11    8   13 1
    12    8   18 am
    13    8   20 2
    14    9   15 1
    15   10   15 1
    16   11   12 1
    17   11   14 1
    18   12   22 1
    19   13   14 1
    20   13   21 1
    21   14   16 1
    22   15   22 1
    23   17   18 1
    24    1   24 1
    25    2   25 1
    26    3   26 1
    27    4   27 1
    28    9   28 1
    29    9   29 1
    30    9   30 1
    31   10   31 1
    32   10   32 1
    33   10   33 1
    34   11   34 1
    35   11   35 1
    36   12   36 1
    37   12   37 1
    38   13   38 1
    39   14   39 1
    40   15   40 1
    41   16   41 1
    42   16   42 1
    43   17   43 1
    44   18   44 1
    45   21   45 1
@<TRIPOS>MOLECULE
LIGAND
   45    45     0     0     0
SMALL
NO_CHARGES

@<TRIPOS>ATOM
      1 C1          0.2838   -0.5121    8.9168 C.ar      1 <0>         0.0000
      2 C2          0.7255   -0.2519    7.6195 C.ar      1 <0>         0.0000
      3 C3          1.0627   -1.2866    9.7766 C.ar      1 <0>         0.0000
      4 C4          2.7249   -1.5408    8.0419 C.ar      1 <0>         0.0000
      5 C5          1.9460   -0.7663    7.1821 C.ar      1 <0>         0.0000
      6 C6          2.2832   -1.8009    9.3391 C.ar      1 <0>         0.0000
      7 C7          2.4155   -0.4891    5.7998 C.2       1 <0>         0.0000
      8 C8          1.9325   -1.0133    2.6768 C.2       1 <0>         0.0000
      9 C9         -2.8396    0.6809   -2.6742 C.3       1 <0>         0.0000
     10 C10        -4.6560   -0.1960   -1.1670 C.3       1 <0>         0.0000
     11 C11         0.2195    0.8307    0.9188 C.3       1 <0>         0.0000
     12 C12        -1.0001    1.1700    0.0549 C.3       1 <0>         0.0000
     13 C13         2.3649   -0.5352    1.2935 C.3       1 <0>         0.0000
     14 C14         1.1534   -0.2750    0.3710 C.3       1 <0>         0.0000
     15 C15        -3.3416    0.5718   -1.2395 C.3       1 <0>         0.0000
     16 N1          1.6681    0.0834   -0.9557 N.3       1 <0>         0.0000
     17 N2          1.4238   -0.2520    4.8674 N.am      1 <0>         0.0000
     18 N3          1.7877    0.0290    3.5734 N.am      1 <0>         0.0000
     19 O1          3.6213   -0.4699    5.5658 O.2       1 <0>         0.0000
     20 O2          1.7602   -2.2018    2.9407 O.2       1 <0>         0.0000
     21 O3          3.2186   -1.5159    0.7230 O.3       1 <0>         0.0000
     22 S1         -2.0977   -0.2515   -0.2193 S.3       1 <0>         0.0000
     23 Cl1         3.2440   -2.7561   10.4008 Cl        1 <0>         0.0000
     24 H1         -0.6664   -0.1113    9.2573 H         1 <0>         0.0000
     25 H2          0.1097    0.3528    6.9588 H         1 <0>         0.0000
     26 H3          0.7056   -1.4810   10.7846 H         1 <0>         0.0000
     27 H4          3.6769   -1.9403    7.6980 H         1 <0>         0.0000
     28 H5         -2.6847   -0.3167   -3.1002 H         1 <0>         0.0000
     29 H6         -3.5648    1.1984   -3.3121 H         1 <0>         0.0000
     30 H7         -1.8850    1.2160   -2.7338 H         1 <0>         0.0000
     31 H8         -4.5291   -1.2071   -1.5698 H         1 <0>         0.0000
     32 H9         -5.4375    0.2943   -1.7580 H         1 <0>         0.0000
     33 H10        -5.0153   -0.2952   -0.1363 H         1 <0>         0.0000
     34 H11        -0.1531    0.5335    1.9082 H         1 <0>         0.0000
     35 H12         0.7975    1.7493    1.0822 H         1 <0>         0.0000
     36 H13        -0.6573    1.5138   -0.9268 H         1 <0>         0.0000
     37 H14        -1.5832    1.9849    0.4933 H         1 <0>         0.0000
     38 H15         2.9484    0.3859    1.4229 H         1 <0>         0.0000
     39 H16         0.5915   -1.2082    0.2610 H         1 <0>         0.0000
     40 H17        -3.4899    1.5778   -0.8328 H         1 <0>         0.0000
     41 H18         0.8845    0.1717   -1.5934 H         1 <0>         0.0000
     42 H19         2.2416   -0.6802   -1.2969 H         1 <0>         0.0000
     43 H20         0.4458   -0.2847    5.1337 H         1 <0>         0.0000
     44 H21         1.9478    0.9869    3.2798 H         1 <0>         0.0000
     45 H22         2.7041   -2.3378    0.6655 H         1 <0>         0.0000
@<TRIPOS>BOND
     1    1    2 ar
     2    1    3 ar
     3    2    5 ar
     4    3    6 ar
     5    4    5 ar
     6    4    6 ar
     7    5    7 1
     8    6   23 1
     9    7   17 am
    10    7   19 2
    11    8   13 1
    12    8   18 am
    13    8   20 2
    14    9   15 1
    15   10   15 1
    16   11   12 1
    17   11   14 1
    18   12   22 1
    19   13   14 1
    20   13   21 1
    21   14   16 1
    22   15   22 1
    23   17   18 1
    24    1   24 1
    25    2   25 1
    26    3   26 1
    27    4   27 1
    28    9   28 1
    29    9   29 1
    30    9   30 1
    31   10   31 1
    32   10   32 1
    33   10   33 1
    34   11   34 1
    35   11   35 1
    36   12   36 1
    37   12   37 1
    38   13   38 1
    39   14   39 1
    40   15   40 1
    41   16   41 1
    42   16   42 1
    43   17   43 1
    44   18   44 1
    45   21   45 1
@<TRIPOS>MOLECULE
LIGAND
   45    45     0     0     0
SMALL
NO_CHARGES

@<TRIPOS>ATOM
      1 C1          0.3862   -0.6315    8.9351 C.ar      1 <0>         0.0000
      2 C2          0.6829   -0.3226    7.6077 C.ar      1 <0>         0.0000
      3 C3         -0.8301   -1.2346    9.2558 C.ar      1 <0>         0.0000
      4 C4         -1.4528   -1.2197    6.9215 C.ar      1 <0>         0.0000
      5 C5         -0.2366   -0.6167    6.6009 C.ar      1 <0>         0.0000
      6 C6         -1.7496   -1.5286    8.2490 C.ar      1 <0>         0.0000
      7 C7          0.0801   -0.2867    5.1871 C.2       1 <0>         0.0000
      8 C8          1.9325   -1.0133    2.6768 C.2       1 <0>         0.0000
      9 C9         -4.1299   -0.4675   -2.0276 C.3       1 <0>         0.0000
     10 C10        -4.2566    1.4118   -0.3565 C.3       1 <0>         0.0000
     11 C11         0.2195    0.8307    0.9188 C.3       1 <0>         0.0000
     12 C12        -1.0001    1.1700    0.0549 C.3       1 <0>         0.0000
     13 C13         2.3649   -0.5352    1.2935 C.3       1 <0>         0.0000
     14 C14         1.1534   -0.2750    0.3710 C.3       1 <0>         0.0000
     15 C15        -3.3416    0.5718   -1.2395 C.3       1 <0>         0.0000
     16 N1          1.6681    0.0834   -0.9557 N.3       1 <0>         0.0000
     17 N2          1.4238   -0.2520    4.8674 N.am      1 <0>         0.0000
     18 N3          1.7877    0.0290    3.5734 N.am      1 <0>         0.0000
     19 O1         -0.8375   -0.0833    4.3961 O.2       1 <0>         0.0000
     20 O2          1.7602   -2.2018    2.9407 O.2       1 <0>         0.0000
     21 O3          3.2186   -1.5159    0.7230 O.3       1 <0>         0.0000
     22 S1         -2.0977   -0.2515   -0.2193 S.3       1 <0>         0.0000
     23 Cl1        -3.2499   -2.2732    8.6452 Cl        1 <0>         0.0000
     24 H1          1.1023   -0.4028    9.7188 H         1 <0>         0.0000
     25 H2          1.6339    0.1473    7.3703 H         1 <0>         0.0000
     26 H3         -1.0475   -1.4695   10.2945 H         1 <0>         0.0000
     27 H4         -2.1680   -1.4485    6.1339 H         1 <0>         0.0000
     28 H5         -4.6663   -1.1363   -1.3453 H         1 <0>         0.0000
     29 H6         -4.8772    0.0053   -2.6747 H         1 <0>         0.0000
     30 H7         -3.4774   -1.0886   -2.6519 H         1 <0>         0.0000
     31 H8         -4.7949    0.7719    0.3515 H         1 <0>         0.0000
     32 H9         -5.0077    1.9429   -0.9517 H         1 <0>         0.0000
     33 H10        -3.6957    2.1500    0.2280 H         1 <0>         0.0000
     34 H11        -0.1531    0.5335    1.9082 H         1 <0>         0.0000
     35 H12         0.7975    1.7493    1.0822 H         1 <0>         0.0000
     36 H13        -0.6573    1.5138   -0.9268 H         1 <0>         0.0000
     37 H14        -1.5832    1.9849    0.4933 H         1 <0>         0.0000
     38 H15         2.9484    0.3859    1.4229 H         1 <0>         0.0000
     39 H16         0.5915   -1.2082    0.2610 H         1 <0>         0.0000
     40 H17        -2.8138    1.2291   -1.9386 H         1 <0>         0.0000
     41 H18         0.8845    0.1717   -1.5934 H         1 <0>         0.0000
     42 H19         2.2416   -0.6802   -1.2969 H         1 <0>         0.0000
     43 H20         2.1281   -0.4306    5.5750 H         1 <0>         0.0000
     44 H21         1.9478    0.9869    3.2798 H         1 <0>         0.0000
     45 H22         2.7041   -2.3378    0.6655 H         1 <0>         0.0000
@<TRIPOS>BOND
     1    1    2 ar
     2    1    3 ar
     3    2    5 ar
     4    3    6 ar
     5    4    5 ar
     6    4    6 ar
     7    5    7 1
     8    6   23 1
     9    7   17 am
    10    7   19 2
    11    8   13 1
    12    8   18 am
    13    8   20 2
    14    9   15 1
    15   10   15 1
    16   11   12 1
    17   11   14 1
    18   12   22 1
    19   13   14 1
    20   13   21 1
    21   14   16 1
    22   15   22 1
    23   17   18 1
    24    1   24 1
    25    2   25 1
    26    3   26 1
    27    4   27 1
    28    9   28 1
    29    9   29 1
    30    9   30 1
    31   10   31 1
    32   10   32 1
    33   10   33 1
    34   11   34 1
    35   11   35 1
    36   12   36 1
    37   12   37 1
    38   13   38 1
    39   14   39 1
    40   15   40 1
    41   16   41 1
    42   16   42 1
    43   17   43 1
    44   18   44 1
    45   21   45 1
@<TRIPOS>MOLECULE
LIGAND
   45    45     0     0     0
SMALL
NO_CHARGES

@<TRIPOS>ATOM
      1 C1         -1.7183   -0.4637    8.5029 C.ar      1 <0>         0.0000
      2 C2         -1.4200   -0.1538    7.1760 C.ar      1 <0>         0.0000
      3 C3         -0.8331   -1.2363    9.2547 C.ar      1 <0>         0.0000
      4 C4          0.6487   -1.3893    7.3526 C.ar      1 <0>         0.0000
      5 C5         -0.2366   -0.6167    6.6009 C.ar      1 <0>         0.0000
      6 C6          0.3503   -1.6991    8.6795 C.ar      1 <0>         0.0000
      7 C7          0.0801   -0.2867    5.1871 C.2       1 <0>         0.0000
      8 C8          1.9325   -1.0133    2.6768 C.2       1 <0>         0.0000
      9 C9         -4.1299   -0.4675   -2.0276 C.3       1 <0>         0.0000
     10 C10        -4.2566    1.4118   -0.3565 C.3       1 <0>         0.0000
     11 C11         0.2195    0.8307    0.9188 C.3       1 <0>         0.0000
     12 C12        -1.0001    1.1700    0.0549 C.3       1 <0>         0.0000
     13 C13         2.3649   -0.5352    1.2935 C.3       1 <0>         0.0000
     14 C14         1.1534   -0.2750    0.3710 C.3       1 <0>         0.0000
     15 C15        -3.3416    0.5718   -1.2395 C.3       1 <0>         0.0000
     16 N1          1.6681    0.0834   -0.9557 N.3       1 <0>         0.0000
     17 N2          1.4238   -0.2520    4.8674 N.am      1 <0>         0.0000
     18 N3          1.7877    0.0290    3.5734 N.am      1 <0>         0.0000
     19 O1         -0.8375   -0.0833    4.3961 O.2       1 <0>         0.0000
     20 O2          1.7602   -2.2018    2.9407 O.2       1 <0>         0.0000
     21 O3          3.2186   -1.5159    0.7230 O.3       1 <0>         0.0000
     22 S1         -2.0977   -0.2515   -0.2193 S.3       1 <0>         0.0000
     23 Cl1         1.4424   -2.6521    9.6079 Cl        1 <0>         0.0000
     24 H1         -2.6397   -0.1029    8.9506 H         1 <0>         0.0000
     25 H2         -2.1177    0.4490    6.6003 H         1 <0>         0.0000
     26 H3         -1.0790   -1.4697   10.2874 H         1 <0>         0.0000
     27 H4          1.5714   -1.7486    6.9015 H         1 <0>         0.0000
     28 H5         -4.6663   -1.1363   -1.3453 H         1 <0>         0.0000
     29 H6         -4.8772    0.0053   -2.6747 H         1 <0>         0.0000
     30 H7         -3.4774   -1.0886   -2.6519 H         1 <0>         0.0000
     31 H8         -4.7949    0.7719    0.3515 H         1 <0>         0.0000
     32 H9         -5.0077    1.9429   -0.9517 H         1 <0>         0.0000
     33 H10        -3.6957    2.1500    0.2280 H         1 <0>         0.0000
     34 H11        -0.1531    0.5335    1.9082 H         1 <0>         0.0000
     35 H12         0.7975    1.7493    1.0822 H         1 <0>         0.0000
     36 H13        -0.6573    1.5138   -0.9268 H         1 <0>         0.0000
     37 H14        -1.5832    1.9849    0.4933 H         1 <0>         0.0000
     38 H15         2.9484    0.3859    1.4229 H         1 <0>         0.0000
     39 H16         0.5915   -1.2082    0.2610 H         1 <0>         0.0000
     40 H17        -2.8138    1.2291   -1.9386 H         1 <0>         0.0000
     41 H18         0.8845    0.1717   -1.5934 H         1 <0>         0.0000
     42 H19         2.2416   -0.6802   -1.2969 H         1 <0>         0.0000
     43 H20         2.1281   -0.4306    5.5750 H         1 <0>         0.0000
     44 H21         1.9478    0.9869    3.2798 H         1 <0>         0.0000
     45 H22         2.7041   -2.3378    0.6655 H         1 <0>         0.0000
@<TRIPOS>BOND
     1    1    2 ar
     2    1    3 ar
     3    2    5 ar
     4    3    6 ar
     5    4    5 ar
     6    4    6 ar
     7    5    7 1
     8    6   23 1
     9    7   17 am
    10    7   19 2
    11    8   13 1
    12    8   18 am
    13    8   20 2
    14    9   15 1
    15   10   15 1
    16   11   12 1
    17   11   14 1
    18   12   22 1
    19   13   14 1
    20   13   21 1
    21   14   16 1
    22   15   22 1
    23   17   18 1
    24    1   24 1
    25    2   25 1
    26    3   26 1
    27    4   27 1
    28    9   28 1
    29    9   29 1
    30    9   30 1
    31   10   31 1
    32   10   32 1
    33   10   33 1
    34   11   34 1
    35   11   35 1
    36   12   36 1
    37   12   37 1
    38   13   38 1
    39   14   39 1
    40   15   40 1
    41   16   41 1
    42   16   42 1
    43   17   43 1
    44   18   44 1
    45   21   45 1
@<TRIPOS>MOLECULE
LIGAND
   45    45     0     0     0
SMALL
NO_CHARGES

@<TRIPOS>ATOM
      1 C1          1.4050   -2.4049    8.7677 C.ar      1 <0>         0.0000
      2 C2          1.6744   -2.0859    7.4368 C.ar      1 <0>         0.0000
      3 C3          2.2499   -3.2707    9.4621 C.ar      1 <0>         0.0000
      4 C4          3.6334   -3.4986    7.4947 C.ar      1 <0>         0.0000
      5 C5          2.7886   -2.6327    6.8003 C.ar      1 <0>         0.0000
      6 C6          3.3641   -3.8176    8.8256 C.ar      1 <0>         0.0000
      7 C7          3.0744   -2.2928    5.3823 C.2       1 <0>         0.0000
      8 C8          1.9325   -1.0133    2.6768 C.2       1 <0>         0.0000
      9 C9         -4.0623    0.8550    1.3177 C.3       1 <0>         0.0000
     10 C10        -3.5584   -1.5885    1.6583 C.3       1 <0>         0.0000
     11 C11         0.2195    0.8307    0.9188 C.3       1 <0>         0.0000
     12 C12        -1.0001    1.1700    0.0549 C.3       1 <0>         0.0000
     13 C13         2.3649   -0.5352    1.2935 C.3       1 <0>         0.0000
     14 C14         1.1534   -0.2750    0.3710 C.3       1 <0>         0.0000
     15 C15        -2.9754   -0.2124    1.3599 C.3       1 <0>         0.0000
     16 N1          1.6681    0.0834   -0.9557 N.3       1 <0>         0.0000
     17 N2          2.6023   -1.0670    4.9540 N.am      1 <0>         0.0000
     18 N3          2.8469   -0.6810    3.6590 N.am      1 <0>         0.0000
     19 O1          3.7083   -3.0847    4.6892 O.2       1 <0>         0.0000
     20 O2          0.8915   -1.6405    2.8632 O.2       1 <0>         0.0000
     21 O3          3.2186   -1.5159    0.7230 O.3       1 <0>         0.0000
     22 S1         -2.0977   -0.2515   -0.2193 S.3       1 <0>         0.0000
     23 Cl1         4.4064   -4.8856    9.6833 Cl        1 <0>         0.0000
     24 H1          0.5376   -1.9787    9.2631 H         1 <0>         0.0000
     25 H2          1.0086   -1.4100    6.9061 H         1 <0>         0.0000
     26 H3          2.0273   -3.5102   10.4987 H         1 <0>         0.0000
     27 H4          4.5022   -3.9233    6.9958 H         1 <0>         0.0000
     28 H5         -4.8019    0.6148    0.5457 H         1 <0>         0.0000
     29 H6         -4.5966    0.9180    2.2722 H         1 <0>         0.0000
     30 H7         -3.6542    1.8453    1.0855 H         1 <0>         0.0000
     31 H8         -4.2902   -1.8663    0.8915 H         1 <0>         0.0000
     32 H9         -4.0769   -1.6012    2.6234 H         1 <0>         0.0000
     33 H10        -2.7856   -2.3656    1.6725 H         1 <0>         0.0000
     34 H11        -0.1531    0.5335    1.9082 H         1 <0>         0.0000
     35 H12         0.7975    1.7493    1.0822 H         1 <0>         0.0000
     36 H13        -0.6573    1.5138   -0.9268 H         1 <0>         0.0000
     37 H14        -1.5832    1.9849    0.4933 H         1 <0>         0.0000
     38 H15         2.9484    0.3859    1.4229 H         1 <0>         0.0000
     39 H16         0.5915   -1.2082    0.2610 H         1 <0>         0.0000
     40 H17        -2.2476    0.0460    2.1366 H         1 <0>         0.0000
     41 H18         0.8845    0.1717   -1.5934 H         1 <0>         0.0000
     42 H19         2.2416   -0.6802   -1.2969 H         1 <0>         0.0000
     43 H20         2.0849   -0.4638    5.5841 H         1 <0>         0.0000
     44 H21         3.6858   -0.1599    3.4266 H         1 <0>         0.0000
     45 H22         2.7041   -2.3378    0.6655 H         1 <0>         0.0000
@<TRIPOS>BOND
     1    1    2 ar
     2    1    3 ar
     3    2    5 ar
     4    3    6 ar
     5    4    5 ar
     6    4    6 ar
     7    5    7 1
     8    6   23 1
     9    7   17 am
    10    7   19 2
    11    8   13 1
    12    8   18 am
    13    8   20 2
    14    9   15 1
    15   10   15 1
    16   11   12 1
    17   11   14 1
    18   12   22 1
    19   13   14 1
    20   13   21 1
    21   14   16 1
    22   15   22 1
    23   17   18 1
    24    1   24 1
    25    2   25 1
    26    3   26 1
    27    4   27 1
    28    9   28 1
    29    9   29 1
    30    9   30 1
    31   10   31 1
    32   10   32 1
    33   10   33 1
    34   11   34 1
    35   11   35 1
    36   12   36 1
    37   12   37 1
    38   13   38 1
    39   14   39 1
    40   15   40 1
    41   16   41 1
    42   16   42 1
    43   17   43 1
    44   18   44 1
    45   21   45 1
@<TRIPOS>MOLECULE
LIGAND
   45    45     0     0     0
SMALL
NO_CHARGES

@<TRIPOS>ATOM
      1 C1         -0.1690   -1.4033    8.5959 C.ar      1 <0>         0.0000
      2 C2          0.1811   -1.0431    7.2947 C.ar      1 <0>         0.0000
      3 C3         -0.3818   -0.4171    9.5593 C.ar      1 <0>         0.0000
      4 C4          0.1059    1.2894    7.9200 C.ar      1 <0>         0.0000
      5 C5          0.3186    0.3032    6.9567 C.ar      1 <0>         0.0000
      6 C6         -0.2443    0.9292    9.2213 C.ar      1 <0>         0.0000
      7 C7          0.6923    0.6859    5.5704 C.2       1 <0>         0.0000
      8 C8          1.9325   -1.0133    2.6768 C.2       1 <0>         0.0000
      9 C9         -4.1299   -0.4675   -2.0276 C.3       1 <0>         0.0000
     10 C10        -4.2566    1.4118   -0.3565 C.3       1 <0>         0.0000
     11 C11         0.2195    0.8307    0.9188 C.3       1 <0>         0.0000
     12 C12        -1.0001    1.1700    0.0549 C.3       1 <0>         0.0000
     13 C13         2.3649   -0.5352    1.2935 C.3       1 <0>         0.0000
     14 C14         1.1534   -0.2750    0.3710 C.3       1 <0>         0.0000
     15 C15        -3.3416    0.5718   -1.2395 C.3       1 <0>         0.0000
     16 N1          1.6681    0.0834   -0.9557 N.3       1 <0>         0.0000
     17 N2          1.4238   -0.2520    4.8674 N.am      1 <0>         0.0000
     18 N3          1.7877    0.0290    3.5734 N.am      1 <0>         0.0000
     19 O1          0.3313    1.7736    5.1279 O.2       1 <0>         0.0000
     20 O2          1.7602   -2.2018    2.9407 O.2       1 <0>         0.0000
     21 O3          3.2186   -1.5159    0.7230 O.3       1 <0>         0.0000
     22 S1         -2.0977   -0.2515   -0.2193 S.3       1 <0>         0.0000
     23 Cl1        -0.5074    2.1455   10.4103 Cl        1 <0>         0.0000
     24 H1         -0.2763   -2.4515    8.8588 H         1 <0>         0.0000
     25 H2          0.3444   -1.8206    6.5528 H         1 <0>         0.0000
     26 H3         -0.6541   -0.7128   10.5691 H         1 <0>         0.0000
     27 H4          0.2134    2.3388    7.6534 H         1 <0>         0.0000
     28 H5         -4.6663   -1.1363   -1.3453 H         1 <0>         0.0000
     29 H6         -4.8772    0.0053   -2.6747 H         1 <0>         0.0000
     30 H7         -3.4774   -1.0886   -2.6519 H         1 <0>         0.0000
     31 H8         -4.7949    0.7719    0.3515 H         1 <0>         0.0000
     32 H9         -5.0077    1.9429   -0.9517 H         1 <0>         0.0000
     33 H10        -3.6957    2.1500    0.2280 H         1 <0>         0.0000
     34 H11        -0.1531    0.5335    1.9082 H         1 <0>         0.0000
     35 H12         0.7975    1.7493    1.0822 H         1 <0>         0.0000
     36 H13        -0.6573    1.5138   -0.9268 H         1 <0>         0.0000
     37 H14        -1.5832    1.9849    0.4933 H         1 <0>         0.0000
     38 H15         2.9484    0.3859    1.4229 H         1 <0>         0.0000
     39 H16         0.5915   -1.2082    0.2610 H         1 <0>         0.0000
     40 H17        -2.8138    1.2291   -1.9386 H         1 <0>         0.0000
     41 H18         0.8845    0.1717   -1.5934 H         1 <0>         0.0000
     42 H19         2.2416   -0.6802   -1.2969 H         1 <0>         0.0000
     43 H20         1.6871   -1.1312    5.2989 H         1 <0>         0.0000
     44 H21         1.9478    0.9869    3.2798 H         1 <0>         0.0000
     45 H22         2.7041   -2.3378    0.6655 H         1 <0>         0.0000
@<TRIPOS>BOND
     1    1    2 ar
     2    1    3 ar
     3    2    5 ar
     4    3    6 ar
     5    4    5 ar
     6    4    6 ar
     7    5    7 1
     8    6   23 1
     9    7   17 am
    10    7   19 2
    11    8   13 1
    12    8   18 am
    13    8   20 2
    14    9   15 1
    15   10   15 1
    16   11   12 1
    17   11   14 1
    18   12   22 1
    19   13   14 1
    20   13   21 1
    21   14   16 1
    22   15   22 1
    23   17   18 1
    24    1   24 1
    25    2   25 1
    26    3   26 1
    27    4   27 1
    28    9   28 1
    29    9   29 1
    30    9   30 1
    31   10   31 1
    32   10   32 1
    33   10   33 1
    34   11   34 1
    35   11   35 1
    36   12   36 1
    37   12   37 1
    38   13   38 1
    39   14   39 1
    40   15   40 1
    41   16   41 1
    42   16   42 1
    43   17   43 1
    44   18   44 1
    45   21   45 1
@<TRIPOS>MOLECULE
LIGAND
   45    45     0     0     0
SMALL
NO_CHARGES

@<TRIPOS>ATOM
      1 C1          2.3269   -0.7274    9.5675 C.ar      1 <0>         0.0000
      2 C2          2.7671   -0.4681    8.2696 C.ar      1 <0>         0.0000
      3 C3          1.0657   -1.2849    9.7779 C.ar      1 <0>         0.0000
      4 C4          0.6848   -1.3238    7.3925 C.ar      1 <0>         0.0000
      5 C5          1.9460   -0.7663    7.1821 C.ar      1 <0>         0.0000
      6 C6          0.2446   -1.5831    8.6904 C.ar      1 <0>         0.0000
      7 C7          2.4155   -0.4891    5.7998 C.2       1 <0>         0.0000
      8 C8          1.9325   -1.0133    2.6768 C.2       1 <0>         0.0000
      9 C9         -2.8396    0.6809   -2.6742 C.3       1 <0>         0.0000
     10 C10        -4.6560   -0.1960   -1.1670 C.3       1 <0>         0.0000
     11 C11         0.2195    0.8307    0.9188 C.3       1 <0>         0.0000
     12 C12        -1.0001    1.1700    0.0549 C.3       1 <0>         0.0000
     13 C13         2.3649   -0.5352    1.2935 C.3       1 <0>         0.0000
     14 C14         1.1534   -0.2750    0.3710 C.3       1 <0>         0.0000
     15 C15        -3.3416    0.5718   -1.2395 C.3       1 <0>         0.0000
     16 N1          1.6681    0.0834   -0.9557 N.3       1 <0>         0.0000
     17 N2          1.4238   -0.2520    4.8674 N.am      1 <0>         0.0000
     18 N3          1.7877    0.0290    3.5734 N.am      1 <0>         0.0000
     19 O1          3.6213   -0.4699    5.5658 O.2       1 <0>         0.0000
     20 O2          1.7602   -2.2018    2.9407 O.2       1 <0>         0.0000
     21 O3          3.2186   -1.5159    0.7230 O.3       1 <0>         0.0000
     22 S1         -2.0977   -0.2515   -0.2193 S.3       1 <0>         0.0000
     23 Cl1        -1.3113   -2.2714    8.9508 Cl        1 <0>         0.0000
     24 H1          2.9664   -0.4955   10.4140 H         1 <0>         0.0000
     25 H2          3.7518   -0.0334    8.1183 H         1 <0>         0.0000
     26 H3          0.7362   -1.4814   10.7949 H         1 <0>         0.0000
     27 H4          0.0467   -1.5558    6.5422 H         1 <0>         0.0000
     28 H5         -2.6847   -0.3167   -3.1002 H         1 <0>         0.0000
     29 H6         -3.5648    1.1984   -3.3121 H         1 <0>         0.0000
     30 H7         -1.8850    1.2160   -2.7338 H         1 <0>         0.0000
     31 H8         -4.5291   -1.2071   -1.5698 H         1 <0>         0.0000
     32 H9         -5.4375    0.2943   -1.7580 H         1 <0>         0.0000
     33 H10        -5.0153   -0.2952   -0.1363 H         1 <0>         0.0000
     34 H11        -0.1531    0.5335    1.9082 H         1 <0>         0.0000
     35 H12         0.7975    1.7493    1.0822 H         1 <0>         0.0000
     36 H13        -0.6573    1.5138   -0.9268 H         1 <0>         0.0000
     37 H14        -1.5832    1.9849    0.4933 H         1 <0>         0.0000
     38 H15         2.9484    0.3859    1.4229 H         1 <0>         0.0000
     39 H16         0.5915   -1.2082    0.2610 H         1 <0>         0.0000
     40 H17        -3.4899    1.5778   -0.8328 H         1 <0>         0.0000
     41 H18         0.8845    0.1717   -1.5934 H         1 <0>         0.0000
     42 H19         2.2416   -0.6802   -1.2969 H         1 <0>         0.0000
     43 H20         0.4458   -0.2847    5.1337 H         1 <0>         0.0000
     44 H21         1.9478    0.9869    3.2798 H         1 <0>         0.0000
     45 H22         2.7041   -2.3378    0.6655 H         1 <0>         0.0000
@<TRIPOS>BOND
     1    1    2 ar
     2    1    3 ar
     3    2    5 ar
     4    3    6 ar
     5    4    5 ar
     6    4    6 ar
     7    5    7 1
     8    6   23 1
     9    7   17 am
    10    7   19 2
    11    8   13 1
    12    8   18 am
    13    8   20 2
    14    9   15 1
    15   10   15 1
    16   11   12 1
    17   11   14 1
    18   12   22 1
    19   13   14 1
    20   13   21 1
    21   14   16 1
    22   15   22 1
    23   17   18 1
    24    1   24 1
    25    2   25 1
    26    3   26 1
    27    4   27 1
    28    9   28 1
    29    9   29 1
    30    9   30 1
    31   10   31 1
    32   10   32 1
    33   10   33 1
    34   11   34 1
    35   11   35 1
    36   12   36 1
    37   12   37 1
    38   13   38 1
    39   14   39 1
    40   15   40 1
    41   16   41 1
    42   16   42 1
    43   17   43 1
    44   18   44 1
    45   21   45 1
@<TRIPOS>MOLECULE
LIGAND
   45    45     0     0     0
SMALL
NO_CHARGES

@<TRIPOS>ATOM
      1 C1         -0.2456    0.9322    9.2201 C.ar      1 <0>         0.0000
      2 C2          0.1058    1.2906    7.9187 C.ar      1 <0>         0.0000
      3 C3         -0.3840   -0.4137    9.5596 C.ar      1 <0>         0.0000
      4 C4          0.1802   -1.0427    7.2962 C.ar      1 <0>         0.0000
      5 C5          0.3186    0.3032    6.9567 C.ar      1 <0>         0.0000
      6 C6         -0.1712   -1.4011    8.5976 C.ar      1 <0>         0.0000
      7 C7          0.6923    0.6859    5.5704 C.2       1 <0>         0.0000
      8 C8          1.9325   -1.0133    2.6768 C.2       1 <0>         0.0000
      9 C9         -1.3566    4.2423   -1.1718 C.3       1 <0>         0.0000
     10 C10        -1.3823    5.0762    1.2040 C.3       1 <0>         0.0000
     11 C11         0.2195    0.8307    0.9188 C.3       1 <0>         0.0000
     12 C12        -1.0001    1.1700    0.0549 C.3       1 <0>         0.0000
     13 C13         2.3649   -0.5352    1.2935 C.3       1 <0>         0.0000
     14 C14         1.1534   -0.2750    0.3710 C.3       1 <0>         0.0000
     15 C15        -1.0699    3.9009    0.2855 C.3       1 <0>         0.0000
     16 N1          1.6681    0.0834   -0.9557 N.3       1 <0>         0.0000
     17 N2          1.4238   -0.2520    4.8674 N.am      1 <0>         0.0000
     18 N3          1.7877    0.0290    3.5734 N.am      1 <0>         0.0000
     19 O1          0.3313    1.7736    5.1279 O.2       1 <0>         0.0000
     20 O2          1.7602   -2.2018    2.9407 O.2       1 <0>         0.0000
     21 O3          3.2186   -1.5159    0.7230 O.3       1 <0>         0.0000
     22 S1         -2.0492    2.4644    0.7791 S.3       1 <0>         0.0000
     23 Cl1        -0.3417   -3.0616    9.0174 Cl        1 <0>         0.0000
     24 H1         -0.4110    1.7011    9.9690 H         1 <0>         0.0000
     25 H2          0.2105    2.3426    7.6662 H         1 <0>         0.0000
     26 H3         -0.6583   -0.6779   10.5776 H         1 <0>         0.0000
     27 H4          0.3474   -1.8109    6.5438 H         1 <0>         0.0000
     28 H5         -2.4105    4.5137   -1.2989 H         1 <0>         0.0000
     29 H6         -0.7576    5.0967   -1.5064 H         1 <0>         0.0000
     30 H7         -1.1520    3.3963   -1.8378 H         1 <0>         0.0000
     31 H8         -2.4367    5.3604    1.1134 H         1 <0>         0.0000
     32 H9         -0.7841    5.9563    0.9431 H         1 <0>         0.0000
     33 H10        -1.1964    4.8333    2.2564 H         1 <0>         0.0000
     34 H11        -0.1531    0.5335    1.9082 H         1 <0>         0.0000
     35 H12         0.7975    1.7493    1.0822 H         1 <0>         0.0000
     36 H13        -1.6176    0.2727   -0.0585 H         1 <0>         0.0000
     37 H14        -0.7009    1.4813   -0.9501 H         1 <0>         0.0000
     38 H15         2.9484    0.3859    1.4229 H         1 <0>         0.0000
     39 H16         0.5915   -1.2082    0.2610 H         1 <0>         0.0000
     40 H17        -0.0132    3.6330    0.3910 H         1 <0>         0.0000
     41 H18         0.8845    0.1717   -1.5934 H         1 <0>         0.0000
     42 H19         2.2416   -0.6802   -1.2969 H         1 <0>         0.0000
     43 H20         1.6871   -1.1312    5.2989 H         1 <0>         0.0000
     44 H21         1.9478    0.9869    3.2798 H         1 <0>         0.0000
     45 H22         2.7041   -2.3378    0.6655 H         1 <0>         0.0000
@<TRIPOS>BOND
     1    1    2 ar
     2    1    3 ar
     3    2    5 ar
     4    3    6 ar
     5    4    5 ar
     6    4    6 ar
     7    5    7 1
     8    6   23 1
     9    7   17 am
    10    7   19 2
    11    8   13 1
    12    8   18 am
    13    8   20 2
    14    9   15 1
    15   10   15 1
    16   11   12 1
    17   11   14 1
    18   12   22 1
    19   13   14 1
    20   13   21 1
    21   14   16 1
    22   15   22 1
    23   17   18 1
    24    1   24 1
    25    2   25 1
    26    3   26 1
    27    4   27 1
    28    9   28 1
    29    9   29 1
    30    9   30 1
    31   10   31 1
    32   10   32 1
    33   10   33 1
    34   11   34 1
    35   11   35 1
    36   12   36 1
    37   12   37 1
    38   13   38 1
    39   14   39 1
    40   15   40 1
    41   16   41 1
    42   16   42 1
    43   17   43 1
    44   18   44 1
    45   21   45 1
@<TRIPOS>MOLECULE
LIGAND
   45    45     0     0     0
SMALL
NO_CHARGES

@<TRIPOS>ATOM
      1 C1          0.9632   -1.9977    8.7659 C.ar      1 <0>         0.0000
      2 C2          1.2047   -1.6176    7.4458 C.ar      1 <0>         0.0000
      3 C3          0.2117   -1.1727    9.6029 C.ar      1 <0>         0.0000
      4 C4         -0.0565    0.4125    7.7995 C.ar      1 <0>         0.0000
      5 C5          0.6949   -0.4125    6.9626 C.ar      1 <0>         0.0000
      6 C6         -0.2981    0.0324    9.1197 C.ar      1 <0>         0.0000
      7 C7          0.9532   -0.0081    5.5563 C.2       1 <0>         0.0000
      8 C8          1.9325   -1.0133    2.6768 C.2       1 <0>         0.0000
      9 C9          0.0309    6.1524    1.8816 C.3       1 <0>         0.0000
     10 C10         1.7102    4.7140    3.0862 C.3       1 <0>         0.0000
     11 C11         0.2195    0.8307    0.9188 C.3       1 <0>         0.0000
     12 C12         0.8590    2.2074    1.1305 C.3       1 <0>         0.0000
     13 C13         2.3649   -0.5352    1.2935 C.3       1 <0>         0.0000
     14 C14         1.1534   -0.2750    0.3710 C.3       1 <0>         0.0000
     15 C15         0.8241    4.8515    1.8540 C.3       1 <0>         0.0000
     16 N1          1.6681    0.0834   -0.9557 N.3       1 <0>         0.0000
     17 N2          2.1084   -0.5131    4.9911 N.am      1 <0>         0.0000
     18 N3          2.3999   -0.1941    3.6876 N.am      1 <0>         0.0000
     19 O1          0.1465    0.7178    4.9806 O.2       1 <0>         0.0000
     20 O2          1.2610   -2.0296    2.8442 O.2       1 <0>         0.0000
     21 O3          3.2186   -1.5159    0.7230 O.3       1 <0>         0.0000
     22 S1         -0.3102    3.4478    1.7590 S.3       1 <0>         0.0000
     23 Cl1        -1.2257    1.0496   10.1528 Cl        1 <0>         0.0000
     24 H1          1.3599   -2.9361    9.1418 H         1 <0>         0.0000
     25 H2          1.7918   -2.2688    6.8033 H         1 <0>         0.0000
     26 H3          0.0317   -1.4820   10.6292 H         1 <0>         0.0000
     27 H4         -0.4535    1.3518    7.4197 H         1 <0>         0.0000
     28 H5         -0.6040    6.1923    2.7738 H         1 <0>         0.0000
     29 H6          0.6947    7.0236    1.9150 H         1 <0>         0.0000
     30 H7         -0.6232    6.2512    1.0077 H         1 <0>         0.0000
     31 H8          1.1011    4.7317    3.9969 H         1 <0>         0.0000
     32 H9          2.4261    5.5404    3.1569 H         1 <0>         0.0000
     33 H10         2.2708    3.7722    3.0836 H         1 <0>         0.0000
     34 H11        -0.6259    0.9652    0.2307 H         1 <0>         0.0000
     35 H12        -0.2197    0.5004    1.8688 H         1 <0>         0.0000
     36 H13         1.2423    2.5738    0.1722 H         1 <0>         0.0000
     37 H14         1.7108    2.1489    1.8142 H         1 <0>         0.0000
     38 H15         2.9484    0.3859    1.4229 H         1 <0>         0.0000
     39 H16         0.5915   -1.2082    0.2610 H         1 <0>         0.0000
     40 H17         1.4510    4.8315    0.9561 H         1 <0>         0.0000
     41 H18         0.8845    0.1717   -1.5934 H         1 <0>         0.0000
     42 H19         2.2416   -0.6802   -1.2969 H         1 <0>         0.0000
     43 H20         2.7293   -1.1081    5.5287 H         1 <0>         0.0000
     44 H21         2.9499    0.6302    3.4697 H         1 <0>         0.0000
     45 H22         2.7041   -2.3378    0.6655 H         1 <0>         0.0000
@<TRIPOS>BOND
     1    1    2 ar
     2    1    3 ar
     3    2    5 ar
     4    3    6 ar
     5    4    5 ar
     6    4    6 ar
     7    5    7 1
     8    6   23 1
     9    7   17 am
    10    7   19 2
    11    8   13 1
    12    8   18 am
    13    8   20 2
    14    9   15 1
    15   10   15 1
    16   11   12 1
    17   11   14 1
    18   12   22 1
    19   13   14 1
    20   13   21 1
    21   14   16 1
    22   15   22 1
    23   17   18 1
    24    1   24 1
    25    2   25 1
    26    3   26 1
    27    4   27 1
    28    9   28 1
    29    9   29 1
    30    9   30 1
    31   10   31 1
    32   10   32 1
    33   10   33 1
    34   11   34 1
    35   11   35 1
    36   12   36 1
    37   12   37 1
    38   13   38 1
    39   14   39 1
    40   15   40 1
    41   16   41 1
    42   16   42 1
    43   17   43 1
    44   18   44 1
    45   21   45 1
@<TRIPOS>MOLECULE
LIGAND
   45    45     0     0     0
SMALL
NO_CHARGES

@<TRIPOS>ATOM
      1 C1          2.3494   -1.9340    9.0709 C.ar      1 <0>         0.0000
      2 C2          2.6184   -1.6158    7.7398 C.ar      1 <0>         0.0000
      3 C3          2.2507   -3.2692    9.4627 C.ar      1 <0>         0.0000
      4 C4          2.6898   -3.9679    7.1920 C.ar      1 <0>         0.0000
      5 C5          2.7886   -2.6327    6.8003 C.ar      1 <0>         0.0000
      6 C6          2.4209   -4.2860    8.5232 C.ar      1 <0>         0.0000
      7 C7          3.0744   -2.2928    5.3823 C.2       1 <0>         0.0000
      8 C8          1.9325   -1.0133    2.6768 C.2       1 <0>         0.0000
      9 C9         -4.0623    0.8550    1.3177 C.3       1 <0>         0.0000
     10 C10        -3.5584   -1.5885    1.6583 C.3       1 <0>         0.0000
     11 C11         0.2195    0.8307    0.9188 C.3       1 <0>         0.0000
     12 C12        -1.0001    1.1700    0.0549 C.3       1 <0>         0.0000
     13 C13         2.3649   -0.5352    1.2935 C.3       1 <0>         0.0000
     14 C14         1.1534   -0.2750    0.3710 C.3       1 <0>         0.0000
     15 C15        -2.9754   -0.2124    1.3599 C.3       1 <0>         0.0000
     16 N1          1.6681    0.0834   -0.9557 N.3       1 <0>         0.0000
     17 N2          2.6023   -1.0670    4.9540 N.am      1 <0>         0.0000
     18 N3          2.8469   -0.6810    3.6590 N.am      1 <0>         0.0000
     19 O1          3.7083   -3.0847    4.6892 O.2       1 <0>         0.0000
     20 O2          0.8915   -1.6405    2.8632 O.2       1 <0>         0.0000
     21 O3          3.2186   -1.5159    0.7230 O.3       1 <0>         0.0000
     22 S1         -2.0977   -0.2515   -0.2193 S.3       1 <0>         0.0000
     23 Cl1         2.2994   -5.9333    9.0073 Cl        1 <0>         0.0000
     24 H1          2.2173   -1.1422    9.8023 H         1 <0>         0.0000
     25 H2          2.6929   -0.5718    7.4466 H         1 <0>         0.0000
     26 H3          2.0407   -3.5019   10.5034 H         1 <0>         0.0000
     27 H4          2.8236   -4.7591    6.4570 H         1 <0>         0.0000
     28 H5         -4.8019    0.6148    0.5457 H         1 <0>         0.0000
     29 H6         -4.5966    0.9180    2.2722 H         1 <0>         0.0000
     30 H7         -3.6542    1.8453    1.0855 H         1 <0>         0.0000
     31 H8         -4.2902   -1.8663    0.8915 H         1 <0>         0.0000
     32 H9         -4.0769   -1.6012    2.6234 H         1 <0>         0.0000
     33 H10        -2.7856   -2.3656    1.6725 H         1 <0>         0.0000
     34 H11        -0.1531    0.5335    1.9082 H         1 <0>         0.0000
     35 H12         0.7975    1.7493    1.0822 H         1 <0>         0.0000
     36 H13        -0.6573    1.5138   -0.9268 H         1 <0>         0.0000
     37 H14        -1.5832    1.9849    0.4933 H         1 <0>         0.0000
     38 H15         2.9484    0.3859    1.4229 H         1 <0>         0.0000
     39 H16         0.5915   -1.2082    0.2610 H         1 <0>         0.0000
     40 H17        -2.2476    0.0460    2.1366 H         1 <0>         0.0000
     41 H18         0.8845    0.1717   -1.5934 H         1 <0>         0.0000
     42 H19         2.2416   -0.6802   -1.2969 H         1 <0>         0.0000
     43 H20         2.0849   -0.4638    5.5841 H         1 <0>         0.0000
     44 H21         3.6858   -0.1599    3.4266 H         1 <0>         0.0000
     45 H22         2.7041   -2.3378    0.6655 H         1 <0>         0.0000
@<TRIPOS>BOND
     1    1    2 ar
     2    1    3 ar
     3    2    5 ar
     4    3    6 ar
     5    4    5 ar
     6    4    6 ar
     7    5    7 1
     8    6   23 1
     9    7   17 am
    10    7   19 2
    11    8   13 1
    12    8   18 am
    13    8   20 2
    14    9   15 1
    15   10   15 1
    16   11   12 1
    17   11   14 1
    18   12   22 1
    19   13   14 1
    20   13   21 1
    21   14   16 1
    22   15   22 1
    23   17   18 1
    24    1   24 1
    25    2   25 1
    26    3   26 1
    27    4   27 1
    28    9   28 1
    29    9   29 1
    30    9   30 1
    31   10   31 1
    32   10   32 1
    33   10   33 1
    34   11   34 1
    35   11   35 1
    36   12   36 1
    37   12   37 1
    38   13   38 1
    39   14   39 1
    40   15   40 1
    41   16   41 1
    42   16   42 1
    43   17   43 1
    44   18   44 1
    45   21   45 1
@<TRIPOS>MOLECULE
LIGAND
   45    45     0     0     0
SMALL
NO_CHARGES

@<TRIPOS>ATOM
      1 C1          2.4230   -4.2883    8.5214 C.ar      1 <0>         0.0000
      2 C2          2.6907   -3.9683    7.1905 C.ar      1 <0>         0.0000
      3 C3          2.2530   -3.2726    9.4623 C.ar      1 <0>         0.0000
      4 C4          2.6187   -1.6170    7.7412 C.ar      1 <0>         0.0000
      5 C5          2.7886   -2.6327    6.8003 C.ar      1 <0>         0.0000
      6 C6          2.3509   -1.9370    9.0722 C.ar      1 <0>         0.0000
      7 C7          3.0744   -2.2928    5.3823 C.2       1 <0>         0.0000
      8 C8          1.9325   -1.0133    2.6768 C.2       1 <0>         0.0000
      9 C9          0.9492    3.5395    4.1781 C.3       1 <0>         0.0000
     10 C10        -1.5671    3.4454    4.1811 C.3       1 <0>         0.0000
     11 C11         0.2195    0.8307    0.9188 C.3       1 <0>         0.0000
     12 C12         0.8590    2.2074    1.1305 C.3       1 <0>         0.0000
     13 C13         2.3649   -0.5352    1.2935 C.3       1 <0>         0.0000
     14 C14         1.1534   -0.2750    0.3710 C.3       1 <0>         0.0000
     15 C15        -0.2901    2.9668    3.5009 C.3       1 <0>         0.0000
     16 N1          1.6681    0.0834   -0.9557 N.3       1 <0>         0.0000
     17 N2          2.6023   -1.0670    4.9540 N.am      1 <0>         0.0000
     18 N3          2.8469   -0.6810    3.6590 N.am      1 <0>         0.0000
     19 O1          3.7083   -3.0847    4.6892 O.2       1 <0>         0.0000
     20 O2          0.8915   -1.6405    2.8632 O.2       1 <0>         0.0000
     21 O3          3.2186   -1.5159    0.7230 O.3       1 <0>         0.0000
     22 S1         -0.3102    3.4478    1.7590 S.3       1 <0>         0.0000
     23 Cl1         2.1407   -0.6842   10.2336 Cl        1 <0>         0.0000
     24 H1          2.3465   -5.3282    8.8249 H         1 <0>         0.0000
     25 H2          2.8213   -4.7686    6.4665 H         1 <0>         0.0000
     26 H3          2.0449   -3.5371   10.4958 H         1 <0>         0.0000
     27 H4          2.6951   -0.5760    7.4338 H         1 <0>         0.0000
     28 H5          0.9275    4.6347    4.1481 H         1 <0>         0.0000
     29 H6          1.0005    3.2436    5.2319 H         1 <0>         0.0000
     30 H7          1.8721    3.2151    3.6839 H         1 <0>         0.0000
     31 H8         -1.6274    4.5391    4.1512 H         1 <0>         0.0000
     32 H9         -1.5938    3.1464    5.2349 H         1 <0>         0.0000
     33 H10        -2.4642    3.0528    3.6891 H         1 <0>         0.0000
     34 H11        -0.6259    0.9652    0.2307 H         1 <0>         0.0000
     35 H12        -0.2197    0.5004    1.8688 H         1 <0>         0.0000
     36 H13         1.2423    2.5738    0.1722 H         1 <0>         0.0000
     37 H14         1.7108    2.1489    1.8142 H         1 <0>         0.0000
     38 H15         2.9484    0.3859    1.4229 H         1 <0>         0.0000
     39 H16         0.5915   -1.2082    0.2610 H         1 <0>         0.0000
     40 H17        -0.2491    1.8731    3.5416 H         1 <0>         0.0000
     41 H18         0.8845    0.1717   -1.5934 H         1 <0>         0.0000
     42 H19         2.2416   -0.6802   -1.2969 H         1 <0>         0.0000
     43 H20         2.0849   -0.4638    5.5841 H         1 <0>         0.0000
     44 H21         3.6858   -0.1599    3.4266 H         1 <0>         0.0000
     45 H22         2.7041   -2.3378    0.6655 H         1 <0>         0.0000
@<TRIPOS>BOND
     1    1    2 ar
     2    1    3 ar
     3    2    5 ar
     4    3    6 ar
     5    4    5 ar
     6    4    6 ar
     7    5    7 1
     8    6   23 1
     9    7   17 am
    10    7   19 2
    11    8   13 1
    12    8   18 am
    13    8   20 2
    14    9   15 1
    15   10   15 1
    16   11   12 1
    17   11   14 1
    18   12   22 1
    19   13   14 1
    20   13   21 1
    21   14   16 1
    22   15   22 1
    23   17   18 1
    24    1   24 1
    25    2   25 1
    26    3   26 1
    27    4   27 1
    28    9   28 1
    29    9   29 1
    30    9   30 1
    31   10   31 1
    32   10   32 1
    33   10   33 1
    34   11   34 1
    35   11   35 1
    36   12   36 1
    37   12   37 1
    38   13   38 1
    39   14   39 1
    40   15   40 1
    41   16   41 1
    42   16   42 1
    43   17   43 1
    44   18   44 1
    45   21   45 1
@<TRIPOS>MOLECULE
LIGAND
   45    45     0     0     0
SMALL
NO_CHARGES

@<TRIPOS>ATOM
      1 C1          2.2867   -1.8006    9.3387 C.ar      1 <0>         0.0000
      2 C2          2.7263   -1.5405    8.0408 C.ar      1 <0>         0.0000
      3 C3          1.0666   -1.2866    9.7779 C.ar      1 <0>         0.0000
      4 C4          0.7260   -0.2522    7.6213 C.ar      1 <0>         0.0000
      5 C5          1.9460   -0.7663    7.1821 C.ar      1 <0>         0.0000
      6 C6          0.2863   -0.5124    8.9192 C.ar      1 <0>         0.0000
      7 C7          2.4155   -0.4891    5.7998 C.2       1 <0>         0.0000
      8 C8          1.9325   -1.0133    2.6768 C.2       1 <0>         0.0000
      9 C9         -2.8396    0.6809   -2.6742 C.3       1 <0>         0.0000
     10 C10        -4.6560   -0.1960   -1.1670 C.3       1 <0>         0.0000
     11 C11         0.2195    0.8307    0.9188 C.3       1 <0>         0.0000
     12 C12        -1.0001    1.1700    0.0549 C.3       1 <0>         0.0000
     13 C13         2.3649   -0.5352    1.2935 C.3       1 <0>         0.0000
     14 C14         1.1534   -0.2750    0.3710 C.3       1 <0>         0.0000
     15 C15        -3.3416    0.5718   -1.2395 C.3       1 <0>         0.0000
     16 N1          1.6681    0.0834   -0.9557 N.3       1 <0>         0.0000
     17 N2          1.4238   -0.2520    4.8674 N.am      1 <0>         0.0000
     18 N3          1.7877    0.0290    3.5734 N.am      1 <0>         0.0000
     19 O1          3.6213   -0.4699    5.5658 O.2       1 <0>         0.0000
     20 O2          1.7602   -2.2018    2.9407 O.2       1 <0>         0.0000
     21 O3          3.2186   -1.5159    0.7230 O.3       1 <0>         0.0000
     22 S1         -2.0977   -0.2515   -0.2193 S.3       1 <0>         0.0000
     23 Cl1        -1.2194    0.1212    9.4617 Cl        1 <0>         0.0000
     24 H1          2.8942   -2.4037   10.0070 H         1 <0>         0.0000
     25 H2          3.6789   -1.9464    7.7100 H         1 <0>         0.0000
     26 H3          0.7369   -1.4976   10.7919 H         1 <0>         0.0000
     27 H4          0.1191    0.3510    6.9490 H         1 <0>         0.0000
     28 H5         -2.6847   -0.3167   -3.1002 H         1 <0>         0.0000
     29 H6         -3.5648    1.1984   -3.3121 H         1 <0>         0.0000
     30 H7         -1.8850    1.2160   -2.7338 H         1 <0>         0.0000
     31 H8         -4.5291   -1.2071   -1.5698 H         1 <0>         0.0000
     32 H9         -5.4375    0.2943   -1.7580 H         1 <0>         0.0000
     33 H10        -5.0153   -0.2952   -0.1363 H         1 <0>         0.0000
     34 H11        -0.1531    0.5335    1.9082 H         1 <0>         0.0000
     35 H12         0.7975    1.7493    1.0822 H         1 <0>         0.0000
     36 H13        -0.6573    1.5138   -0.9268 H         1 <0>         0.0000
     37 H14        -1.5832    1.9849    0.4933 H         1 <0>         0.0000
     38 H15         2.9484    0.3859    1.4229 H         1 <0>         0.0000
     39 H16         0.5915   -1.2082    0.2610 H         1 <0>         0.0000
     40 H17        -3.4899    1.5778   -0.8328 H         1 <0>         0.0000
     41 H18         0.8845    0.1717   -1.5934 H         1 <0>         0.0000
     42 H19         2.2416   -0.6802   -1.2969 H         1 <0>         0.0000
     43 H20         0.4458   -0.2847    5.1337 H         1 <0>         0.0000
     44 H21         1.9478    0.9869    3.2798 H         1 <0>         0.0000
     45 H22         2.7041   -2.3378    0.6655 H         1 <0>         0.0000
@<TRIPOS>BOND
     1    1    2 ar
     2    1    3 ar
     3    2    5 ar
     4    3    6 ar
     5    4    5 ar
     6    4    6 ar
     7    5    7 1
     8    6   23 1
     9    7   17 am
    10    7   19 2
    11    8   13 1
    12    8   18 am
    13    8   20 2
    14    9   15 1
    15   10   15 1
    16   11   12 1
    17   11   14 1
    18   12   22 1
    19   13   14 1
    20   13   21 1
    21   14   16 1
    22   15   22 1
    23   17   18 1
    24    1   24 1
    25    2   25 1
    26    3   26 1
    27    4   27 1
    28    9   28 1
    29    9   29 1
    30    9   30 1
    31   10   31 1
    32   10   32 1
    33   10   33 1
    34   11   34 1
    35   11   35 1
    36   12   36 1
    37   12   37 1
    38   13   38 1
    39   14   39 1
    40   15   40 1
    41   16   41 1
    42   16   42 1
    43   17   43 1
    44   18   44 1
    45   21   45 1
@<TRIPOS>MOLECULE
LIGAND
   45    45     0     0     0
SMALL
NO_CHARGES

@<TRIPOS>ATOM
      1 C1         -1.7183   -0.4637    8.5029 C.ar      1 <0>         0.0000
      2 C2         -1.4200   -0.1538    7.1760 C.ar      1 <0>         0.0000
      3 C3         -0.8331   -1.2363    9.2547 C.ar      1 <0>         0.0000
      4 C4          0.6487   -1.3893    7.3526 C.ar      1 <0>         0.0000
      5 C5         -0.2366   -0.6167    6.6009 C.ar      1 <0>         0.0000
      6 C6          0.3503   -1.6991    8.6795 C.ar      1 <0>         0.0000
      7 C7          0.0801   -0.2867    5.1871 C.2       1 <0>         0.0000
      8 C8          1.9325   -1.0133    2.6768 C.2       1 <0>         0.0000
      9 C9         -1.3566    4.2423   -1.1718 C.3       1 <0>         0.0000
     10 C10        -1.3823    5.0762    1.2040 C.3       1 <0>         0.0000
     11 C11         0.2195    0.8307    0.9188 C.3       1 <0>         0.0000
     12 C12        -1.0001    1.1700    0.0549 C.3       1 <0>         0.0000
     13 C13         2.3649   -0.5352    1.2935 C.3       1 <0>         0.0000
     14 C14         1.1534   -0.2750    0.3710 C.3       1 <0>         0.0000
     15 C15        -1.0699    3.9009    0.2855 C.3       1 <0>         0.0000
     16 N1          1.6681    0.0834   -0.9557 N.3       1 <0>         0.0000
     17 N2          1.4238   -0.2520    4.8674 N.am      1 <0>         0.0000
     18 N3          1.7877    0.0290    3.5734 N.am      1 <0>         0.0000
     19 O1         -0.8375   -0.0833    4.3961 O.2       1 <0>         0.0000
     20 O2          1.7602   -2.2018    2.9407 O.2       1 <0>         0.0000
     21 O3          3.2186   -1.5159    0.7230 O.3       1 <0>         0.0000
     22 S1         -2.0492    2.4644    0.7791 S.3       1 <0>         0.0000
     23 Cl1         1.4424   -2.6521    9.6079 Cl        1 <0>         0.0000
     24 H1         -2.6397   -0.1029    8.9506 H         1 <0>         0.0000
     25 H2         -2.1177    0.4490    6.6003 H         1 <0>         0.0000
     26 H3         -1.0790   -1.4697   10.2874 H         1 <0>         0.0000
     27 H4          1.5714   -1.7486    6.9015 H         1 <0>         0.0000
     28 H5         -2.4105    4.5137   -1.2989 H         1 <0>         0.0000
     29 H6         -0.7576    5.0967   -1.5064 H         1 <0>         0.0000
     30 H7         -1.1520    3.3963   -1.8378 H         1 <0>         0.0000
     31 H8         -2.4367    5.3604    1.1134 H         1 <0>         0.0000
     32 H9         -0.7841    5.9563    0.9431 H         1 <0>         0.0000
     33 H10        -1.1964    4.8333    2.2564 H         1 <0>         0.0000
     34 H11        -0.1531    0.5335    1.9082 H         1 <0>         0.0000
     35 H12         0.7975    1.7493    1.0822 H         1 <0>         0.0000
     36 H13        -1.6176    0.2727   -0.0585 H         1 <0>         0.0000
     37 H14        -0.7009    1.4813   -0.9501 H         1 <0>         0.0000
     38 H15         2.9484    0.3859    1.4229 H         1 <0>         0.0000
     39 H16         0.5915   -1.2082    0.2610 H         1 <0>         0.0000
     40 H17        -0.0132    3.6330    0.3910 H         1 <0>         0.0000
     41 H18         0.8845    0.1717   -1.5934 H         1 <0>         0.0000
     42 H19         2.2416   -0.6802   -1.2969 H         1 <0>         0.0000
     43 H20         2.1281   -0.4306    5.5750 H         1 <0>         0.0000
     44 H21         1.9478    0.9869    3.2798 H         1 <0>         0.0000
     45 H22         2.7041   -2.3378    0.6655 H         1 <0>         0.0000
@<TRIPOS>BOND
     1    1    2 ar
     2    1    3 ar
     3    2    5 ar
     4    3    6 ar
     5    4    5 ar
     6    4    6 ar
     7    5    7 1
     8    6   23 1
     9    7   17 am
    10    7   19 2
    11    8   13 1
    12    8   18 am
    13    8   20 2
    14    9   15 1
    15   10   15 1
    16   11   12 1
    17   11   14 1
    18   12   22 1
    19   13   14 1
    20   13   21 1
    21   14   16 1
    22   15   22 1
    23   17   18 1
    24    1   24 1
    25    2   25 1
    26    3   26 1
    27    4   27 1
    28    9   28 1
    29    9   29 1
    30    9   30 1
    31   10   31 1
    32   10   32 1
    33   10   33 1
    34   11   34 1
    35   11   35 1
    36   12   36 1
    37   12   37 1
    38   13   38 1
    39   14   39 1
    40   15   40 1
    41   16   41 1
    42   16   42 1
    43   17   43 1
    44   18   44 1
    45   21   45 1
@<TRIPOS>MOLECULE
LIGAND
   45    45     0     0     0
SMALL
NO_CHARGES

@<TRIPOS>ATOM
      1 C1          0.3862   -0.6315    8.9351 C.ar      1 <0>         0.0000
      2 C2          0.6829   -0.3226    7.6077 C.ar      1 <0>         0.0000
      3 C3         -0.8301   -1.2346    9.2558 C.ar      1 <0>         0.0000
      4 C4         -1.4528   -1.2197    6.9215 C.ar      1 <0>         0.0000
      5 C5         -0.2366   -0.6167    6.6009 C.ar      1 <0>         0.0000
      6 C6         -1.7496   -1.5286    8.2490 C.ar      1 <0>         0.0000
      7 C7          0.0801   -0.2867    5.1871 C.2       1 <0>         0.0000
      8 C8          1.9325   -1.0133    2.6768 C.2       1 <0>         0.0000
      9 C9         -1.3566    4.2423   -1.1718 C.3       1 <0>         0.0000
     10 C10        -1.3823    5.0762    1.2040 C.3       1 <0>         0.0000
     11 C11         0.2195    0.8307    0.9188 C.3       1 <0>         0.0000
     12 C12        -1.0001    1.1700    0.0549 C.3       1 <0>         0.0000
     13 C13         2.3649   -0.5352    1.2935 C.3       1 <0>         0.0000
     14 C14         1.1534   -0.2750    0.3710 C.3       1 <0>         0.0000
     15 C15        -1.0699    3.9009    0.2855 C.3       1 <0>         0.0000
     16 N1          1.6681    0.0834   -0.9557 N.3       1 <0>         0.0000
     17 N2          1.4238   -0.2520    4.8674 N.am      1 <0>         0.0000
     18 N3          1.7877    0.0290    3.5734 N.am      1 <0>         0.0000
     19 O1         -0.8375   -0.0833    4.3961 O.2       1 <0>         0.0000
     20 O2          1.7602   -2.2018    2.9407 O.2       1 <0>         0.0000
     21 O3          3.2186   -1.5159    0.7230 O.3       1 <0>         0.0000
     22 S1         -2.0492    2.4644    0.7791 S.3       1 <0>         0.0000
     23 Cl1        -3.2499   -2.2732    8.6452 Cl        1 <0>         0.0000
     24 H1          1.1023   -0.4028    9.7188 H         1 <0>         0.0000
     25 H2          1.6339    0.1473    7.3703 H         1 <0>         0.0000
     26 H3         -1.0475   -1.4695   10.2945 H         1 <0>         0.0000
     27 H4         -2.1680   -1.4485    6.1339 H         1 <0>         0.0000
     28 H5         -2.4105    4.5137   -1.2989 H         1 <0>         0.0000
     29 H6         -0.7576    5.0967   -1.5064 H         1 <0>         0.0000
     30 H7         -1.1520    3.3963   -1.8378 H         1 <0>         0.0000
     31 H8         -2.4367    5.3604    1.1134 H         1 <0>         0.0000
     32 H9         -0.7841    5.9563    0.9431 H         1 <0>         0.0000
     33 H10        -1.1964    4.8333    2.2564 H         1 <0>         0.0000
     34 H11        -0.1531    0.5335    1.9082 H         1 <0>         0.0000
     35 H12         0.7975    1.7493    1.0822 H         1 <0>         0.0000
     36 H13        -1.6176    0.2727   -0.0585 H         1 <0>         0.0000
     37 H14        -0.7009    1.4813   -0.9501 H         1 <0>         0.0000
     38 H15         2.9484    0.3859    1.4229 H         1 <0>         0.0000
     39 H16         0.5915   -1.2082    0.2610 H         1 <0>         0.0000
     40 H17        -0.0132    3.6330    0.3910 H         1 <0>         0.0000
     41 H18         0.8845    0.1717   -1.5934 H         1 <0>         0.0000
     42 H19         2.2416   -0.6802   -1.2969 H         1 <0>         0.0000
     43 H20         2.1281   -0.4306    5.5750 H         1 <0>         0.0000
     44 H21         1.9478    0.9869    3.2798 H         1 <0>         0.0000
     45 H22         2.7041   -2.3378    0.6655 H         1 <0>         0.0000
@<TRIPOS>BOND
     1    1    2 ar
     2    1    3 ar
     3    2    5 ar
     4    3    6 ar
     5    4    5 ar
     6    4    6 ar
     7    5    7 1
     8    6   23 1
     9    7   17 am
    10    7   19 2
    11    8   13 1
    12    8   18 am
    13    8   20 2
    14    9   15 1
    15   10   15 1
    16   11   12 1
    17   11   14 1
    18   12   22 1
    19   13   14 1
    20   13   21 1
    21   14   16 1
    22   15   22 1
    23   17   18 1
    24    1   24 1
    25    2   25 1
    26    3   26 1
    27    4   27 1
    28    9   28 1
    29    9   29 1
    30    9   30 1
    31   10   31 1
    32   10   32 1
    33   10   33 1
    34   11   34 1
    35   11   35 1
    36   12   36 1
    37   12   37 1
    38   13   38 1
    39   14   39 1
    40   15   40 1
    41   16   41 1
    42   16   42 1
    43   17   43 1
    44   18   44 1
    45   21   45 1
@<TRIPOS>MOLECULE
LIGAND
   45    45     0     0     0
SMALL
NO_CHARGES

@<TRIPOS>ATOM
      1 C1         -1.7508   -1.5308    8.2465 C.ar      1 <0>         0.0000
      2 C2         -1.4530   -1.2202    6.9197 C.ar      1 <0>         0.0000
      3 C3         -0.8322   -1.2379    9.2545 C.ar      1 <0>         0.0000
      4 C4          0.6821   -0.3238    7.6089 C.ar      1 <0>         0.0000
      5 C5         -0.2366   -0.6167    6.6009 C.ar      1 <0>         0.0000
      6 C6          0.3843   -0.6344    8.9357 C.ar      1 <0>         0.0000
      7 C7          0.0801   -0.2867    5.1871 C.2       1 <0>         0.0000
      8 C8          1.9325   -1.0133    2.6768 C.2       1 <0>         0.0000
      9 C9         -4.1299   -0.4675   -2.0276 C.3       1 <0>         0.0000
     10 C10        -4.2566    1.4118   -0.3565 C.3       1 <0>         0.0000
     11 C11         0.2195    0.8307    0.9188 C.3       1 <0>         0.0000
     12 C12        -1.0001    1.1700    0.0549 C.3       1 <0>         0.0000
     13 C13         2.3649   -0.5352    1.2935 C.3       1 <0>         0.0000
     14 C14         1.1534   -0.2750    0.3710 C.3       1 <0>         0.0000
     15 C15        -3.3416    0.5718   -1.2395 C.3       1 <0>         0.0000
     16 N1          1.6681    0.0834   -0.9557 N.3       1 <0>         0.0000
     17 N2          1.4238   -0.2520    4.8674 N.am      1 <0>         0.0000
     18 N3          1.7877    0.0290    3.5734 N.am      1 <0>         0.0000
     19 O1         -0.8375   -0.0833    4.3961 O.2       1 <0>         0.0000
     20 O2          1.7602   -2.2018    2.9407 O.2       1 <0>         0.0000
     21 O3          3.2186   -1.5159    0.7230 O.3       1 <0>         0.0000
     22 S1         -2.0977   -0.2515   -0.2193 S.3       1 <0>         0.0000
     23 Cl1         1.5171   -0.2728   10.1801 Cl        1 <0>         0.0000
     24 H1         -2.6981   -2.0004    8.4946 H         1 <0>         0.0000
     25 H2         -2.1768   -1.4534    6.1430 H         1 <0>         0.0000
     26 H3         -1.0781   -1.4858   10.2839 H         1 <0>         0.0000
     27 H4          1.6301    0.1476    7.3573 H         1 <0>         0.0000
     28 H5         -4.6663   -1.1363   -1.3453 H         1 <0>         0.0000
     29 H6         -4.8772    0.0053   -2.6747 H         1 <0>         0.0000
     30 H7         -3.4774   -1.0886   -2.6519 H         1 <0>         0.0000
     31 H8         -4.7949    0.7719    0.3515 H         1 <0>         0.0000
     32 H9         -5.0077    1.9429   -0.9517 H         1 <0>         0.0000
     33 H10        -3.6957    2.1500    0.2280 H         1 <0>         0.0000
     34 H11        -0.1531    0.5335    1.9082 H         1 <0>         0.0000
     35 H12         0.7975    1.7493    1.0822 H         1 <0>         0.0000
     36 H13        -0.6573    1.5138   -0.9268 H         1 <0>         0.0000
     37 H14        -1.5832    1.9849    0.4933 H         1 <0>         0.0000
     38 H15         2.9484    0.3859    1.4229 H         1 <0>         0.0000
     39 H16         0.5915   -1.2082    0.2610 H         1 <0>         0.0000
     40 H17        -2.8138    1.2291   -1.9386 H         1 <0>         0.0000
     41 H18         0.8845    0.1717   -1.5934 H         1 <0>         0.0000
     42 H19         2.2416   -0.6802   -1.2969 H         1 <0>         0.0000
     43 H20         2.1281   -0.4306    5.5750 H         1 <0>         0.0000
     44 H21         1.9478    0.9869    3.2798 H         1 <0>         0.0000
     45 H22         2.7041   -2.3378    0.6655 H         1 <0>         0.0000
@<TRIPOS>BOND
     1    1    2 ar
     2    1    3 ar
     3    2    5 ar
     4    3    6 ar
     5    4    5 ar
     6    4    6 ar
     7    5    7 1
     8    6   23 1
     9    7   17 am
    10    7   19 2
    11    8   13 1
    12    8   18 am
    13    8   20 2
    14    9   15 1
    15   10   15 1
    16   11   12 1
    17   11   14 1
    18   12   22 1
    19   13   14 1
    20   13   21 1
    21   14   16 1
    22   15   22 1
    23   17   18 1
    24    1   24 1
    25    2   25 1
    26    3   26 1
    27    4   27 1
    28    9   28 1
    29    9   29 1
    30    9   30 1
    31   10   31 1
    32   10   32 1
    33   10   33 1
    34   11   34 1
    35   11   35 1
    36   12   36 1
    37   12   37 1
    38   13   38 1
    39   14   39 1
    40   15   40 1
    41   16   41 1
    42   16   42 1
    43   17   43 1
    44   18   44 1
    45   21   45 1
@<TRIPOS>MOLECULE
LIGAND
   45    45     0     0     0
SMALL
NO_CHARGES

@<TRIPOS>ATOM
      1 C1          3.3674   -3.8174    8.8247 C.ar      1 <0>         0.0000
      2 C2          3.6347   -3.4983    7.4934 C.ar      1 <0>         0.0000
      3 C3          2.2539   -3.2710    9.4629 C.ar      1 <0>         0.0000
      4 C4          1.6751   -2.0863    7.4384 C.ar      1 <0>         0.0000
      5 C5          2.7886   -2.6327    6.8003 C.ar      1 <0>         0.0000
      6 C6          1.4078   -2.4054    8.7697 C.ar      1 <0>         0.0000
      7 C7          3.0744   -2.2928    5.3823 C.2       1 <0>         0.0000
      8 C8          1.9325   -1.0133    2.6768 C.2       1 <0>         0.0000
      9 C9         -4.0623    0.8550    1.3177 C.3       1 <0>         0.0000
     10 C10        -3.5584   -1.5885    1.6583 C.3       1 <0>         0.0000
     11 C11         0.2195    0.8307    0.9188 C.3       1 <0>         0.0000
     12 C12        -1.0001    1.1700    0.0549 C.3       1 <0>         0.0000
     13 C13         2.3649   -0.5352    1.2935 C.3       1 <0>         0.0000
     14 C14         1.1534   -0.2750    0.3710 C.3       1 <0>         0.0000
     15 C15        -2.9754   -0.2124    1.3599 C.3       1 <0>         0.0000
     16 N1          1.6681    0.0834   -0.9557 N.3       1 <0>         0.0000
     17 N2          2.6023   -1.0670    4.9540 N.am      1 <0>         0.0000
     18 N3          2.8469   -0.6810    3.6590 N.am      1 <0>         0.0000
     19 O1          3.7083   -3.0847    4.6892 O.2       1 <0>         0.0000
     20 O2          0.8915   -1.6405    2.8632 O.2       1 <0>         0.0000
     21 O3          3.2186   -1.5159    0.7230 O.3       1 <0>         0.0000
     22 S1         -2.0977   -0.2515   -0.2193 S.3       1 <0>         0.0000
     23 Cl1         0.0337   -1.7319    9.5577 Cl        1 <0>         0.0000
     24 H1          4.0262   -4.4916    9.3641 H         1 <0>         0.0000
     25 H2          4.5055   -3.9303    7.0070 H         1 <0>         0.0000
     26 H3          2.0583   -3.5288   10.5005 H         1 <0>         0.0000
     27 H4          1.0164   -1.4117    6.8951 H         1 <0>         0.0000
     28 H5         -4.8019    0.6148    0.5457 H         1 <0>         0.0000
     29 H6         -4.5966    0.9180    2.2722 H         1 <0>         0.0000
     30 H7         -3.6542    1.8453    1.0855 H         1 <0>         0.0000
     31 H8         -4.2902   -1.8663    0.8915 H         1 <0>         0.0000
     32 H9         -4.0769   -1.6012    2.6234 H         1 <0>         0.0000
     33 H10        -2.7856   -2.3656    1.6725 H         1 <0>         0.0000
     34 H11        -0.1531    0.5335    1.9082 H         1 <0>         0.0000
     35 H12         0.7975    1.7493    1.0822 H         1 <0>         0.0000
     36 H13        -0.6573    1.5138   -0.9268 H         1 <0>         0.0000
     37 H14        -1.5832    1.9849    0.4933 H         1 <0>         0.0000
     38 H15         2.9484    0.3859    1.4229 H         1 <0>         0.0000
     39 H16         0.5915   -1.2082    0.2610 H         1 <0>         0.0000
     40 H17        -2.2476    0.0460    2.1366 H         1 <0>         0.0000
     41 H18         0.8845    0.1717   -1.5934 H         1 <0>         0.0000
     42 H19         2.2416   -0.6802   -1.2969 H         1 <0>         0.0000
     43 H20         2.0849   -0.4638    5.5841 H         1 <0>         0.0000
     44 H21         3.6858   -0.1599    3.4266 H         1 <0>         0.0000
     45 H22         2.7041   -2.3378    0.6655 H         1 <0>         0.0000
@<TRIPOS>BOND
     1    1    2 ar
     2    1    3 ar
     3    2    5 ar
     4    3    6 ar
     5    4    5 ar
     6    4    6 ar
     7    5    7 1
     8    6   23 1
     9    7   17 am
    10    7   19 2
    11    8   13 1
    12    8   18 am
    13    8   20 2
    14    9   15 1
    15   10   15 1
    16   11   12 1
    17   11   14 1
    18   12   22 1
    19   13   14 1
    20   13   21 1
    21   14   16 1
    22   15   22 1
    23   17   18 1
    24    1   24 1
    25    2   25 1
    26    3   26 1
    27    4   27 1
    28    9   28 1
    29    9   29 1
    30    9   30 1
    31   10   31 1
    32   10   32 1
    33   10   33 1
    34   11   34 1
    35   11   35 1
    36   12   36 1
    37   12   37 1
    38   13   38 1
    39   14   39 1
    40   15   40 1
    41   16   41 1
    42   16   42 1
    43   17   43 1
    44   18   44 1
    45   21   45 1
@<TRIPOS>MOLECULE
LIGAND
   45    45     0     0     0
SMALL
NO_CHARGES

@<TRIPOS>ATOM
      1 C1         -0.2456    0.9322    9.2201 C.ar      1 <0>         0.0000
      2 C2          0.1058    1.2906    7.9187 C.ar      1 <0>         0.0000
      3 C3         -0.3840   -0.4137    9.5596 C.ar      1 <0>         0.0000
      4 C4          0.1802   -1.0427    7.2962 C.ar      1 <0>         0.0000
      5 C5          0.3186    0.3032    6.9567 C.ar      1 <0>         0.0000
      6 C6         -0.1712   -1.4011    8.5976 C.ar      1 <0>         0.0000
      7 C7          0.6923    0.6859    5.5704 C.2       1 <0>         0.0000
      8 C8          1.9325   -1.0133    2.6768 C.2       1 <0>         0.0000
      9 C9         -4.1299   -0.4675   -2.0276 C.3       1 <0>         0.0000
     10 C10        -4.2566    1.4118   -0.3565 C.3       1 <0>         0.0000
     11 C11         0.2195    0.8307    0.9188 C.3       1 <0>         0.0000
     12 C12        -1.0001    1.1700    0.0549 C.3       1 <0>         0.0000
     13 C13         2.3649   -0.5352    1.2935 C.3       1 <0>         0.0000
     14 C14         1.1534   -0.2750    0.3710 C.3       1 <0>         0.0000
     15 C15        -3.3416    0.5718   -1.2395 C.3       1 <0>         0.0000
     16 N1          1.6681    0.0834   -0.9557 N.3       1 <0>         0.0000
     17 N2          1.4238   -0.2520    4.8674 N.am      1 <0>         0.0000
     18 N3          1.7877    0.0290    3.5734 N.am      1 <0>         0.0000
     19 O1          0.3313    1.7736    5.1279 O.2       1 <0>         0.0000
     20 O2          1.7602   -2.2018    2.9407 O.2       1 <0>         0.0000
     21 O3          3.2186   -1.5159    0.7230 O.3       1 <0>         0.0000
     22 S1         -2.0977   -0.2515   -0.2193 S.3       1 <0>         0.0000
     23 Cl1        -0.3417   -3.0616    9.0174 Cl        1 <0>         0.0000
     24 H1         -0.4110    1.7011    9.9690 H         1 <0>         0.0000
     25 H2          0.2105    2.3426    7.6662 H         1 <0>         0.0000
     26 H3         -0.6583   -0.6779   10.5776 H         1 <0>         0.0000
     27 H4          0.3474   -1.8109    6.5438 H         1 <0>         0.0000
     28 H5         -4.6663   -1.1363   -1.3453 H         1 <0>         0.0000
     29 H6         -4.8772    0.0053   -2.6747 H         1 <0>         0.0000
     30 H7         -3.4774   -1.0886   -2.6519 H         1 <0>         0.0000
     31 H8         -4.7949    0.7719    0.3515 H         1 <0>         0.0000
     32 H9         -5.0077    1.9429   -0.9517 H         1 <0>         0.0000
     33 H10        -3.6957    2.1500    0.2280 H         1 <0>         0.0000
     34 H11        -0.1531    0.5335    1.9082 H         1 <0>         0.0000
     35 H12         0.7975    1.7493    1.0822 H         1 <0>         0.0000
     36 H13        -0.6573    1.5138   -0.9268 H         1 <0>         0.0000
     37 H14        -1.5832    1.9849    0.4933 H         1 <0>         0.0000
     38 H15         2.9484    0.3859    1.4229 H         1 <0>         0.0000
     39 H16         0.5915   -1.2082    0.2610 H         1 <0>         0.0000
     40 H17        -2.8138    1.2291   -1.9386 H         1 <0>         0.0000
     41 H18         0.8845    0.1717   -1.5934 H         1 <0>         0.0000
     42 H19         2.2416   -0.6802   -1.2969 H         1 <0>         0.0000
     43 H20         1.6871   -1.1312    5.2989 H         1 <0>         0.0000
     44 H21         1.9478    0.9869    3.2798 H         1 <0>         0.0000
     45 H22         2.7041   -2.3378    0.6655 H         1 <0>         0.0000
@<TRIPOS>BOND
     1    1    2 ar
     2    1    3 ar
     3    2    5 ar
     4    3    6 ar
     5    4    5 ar
     6    4    6 ar
     7    5    7 1
     8    6   23 1
     9    7   17 am
    10    7   19 2
    11    8   13 1
    12    8   18 am
    13    8   20 2
    14    9   15 1
    15   10   15 1
    16   11   12 1
    17   11   14 1
    18   12   22 1
    19   13   14 1
    20   13   21 1
    21   14   16 1
    22   15   22 1
    23   17   18 1
    24    1   24 1
    25    2   25 1
    26    3   26 1
    27    4   27 1
    28    9   28 1
    29    9   29 1
    30    9   30 1
    31   10   31 1
    32   10   32 1
    33   10   33 1
    34   11   34 1
    35   11   35 1
    36   12   36 1
    37   12   37 1
    38   13   38 1
    39   14   39 1
    40   15   40 1
    41   16   41 1
    42   16   42 1
    43   17   43 1
    44   18   44 1
    45   21   45 1
@<TRIPOS>MOLECULE
LIGAND
   45    45     0     0     0
SMALL
NO_CHARGES

@<TRIPOS>ATOM
      1 C1         -0.3007    0.0342    9.1181 C.ar      1 <0>         0.0000
      2 C2         -0.0572    0.4134    7.7980 C.ar      1 <0>         0.0000
      3 C3          0.2080   -1.1709    9.6027 C.ar      1 <0>         0.0000
      4 C4          1.2035   -1.6176    7.4472 C.ar      1 <0>         0.0000
      5 C5          0.6949   -0.4125    6.9626 C.ar      1 <0>         0.0000
      6 C6          0.9601   -1.9967    8.7673 C.ar      1 <0>         0.0000
      7 C7          0.9532   -0.0081    5.5563 C.2       1 <0>         0.0000
      8 C8          1.9325   -1.0133    2.6768 C.2       1 <0>         0.0000
      9 C9          0.0309    6.1524    1.8816 C.3       1 <0>         0.0000
     10 C10         1.7102    4.7140    3.0862 C.3       1 <0>         0.0000
     11 C11         0.2195    0.8307    0.9188 C.3       1 <0>         0.0000
     12 C12         0.8590    2.2074    1.1305 C.3       1 <0>         0.0000
     13 C13         2.3649   -0.5352    1.2935 C.3       1 <0>         0.0000
     14 C14         1.1534   -0.2750    0.3710 C.3       1 <0>         0.0000
     15 C15         0.8241    4.8515    1.8540 C.3       1 <0>         0.0000
     16 N1          1.6681    0.0834   -0.9557 N.3       1 <0>         0.0000
     17 N2          2.1084   -0.5131    4.9911 N.am      1 <0>         0.0000
     18 N3          2.3999   -0.1941    3.6876 N.am      1 <0>         0.0000
     19 O1          0.1465    0.7178    4.9806 O.2       1 <0>         0.0000
     20 O2          1.2610   -2.0296    2.8442 O.2       1 <0>         0.0000
     21 O3          3.2186   -1.5159    0.7230 O.3       1 <0>         0.0000
     22 S1         -0.3102    3.4478    1.7590 S.3       1 <0>         0.0000
     23 Cl1         1.5879   -3.4833    9.3661 Cl        1 <0>         0.0000
     24 H1         -0.8859    0.6775    9.7685 H         1 <0>         0.0000
     25 H2         -0.4589    1.3547    7.4319 H         1 <0>         0.0000
     26 H3          0.0102   -1.4532   10.6336 H         1 <0>         0.0000
     27 H4          1.7904   -2.2596    6.7933 H         1 <0>         0.0000
     28 H5         -0.6040    6.1923    2.7738 H         1 <0>         0.0000
     29 H6          0.6947    7.0236    1.9150 H         1 <0>         0.0000
     30 H7         -0.6232    6.2512    1.0077 H         1 <0>         0.0000
     31 H8          1.1011    4.7317    3.9969 H         1 <0>         0.0000
     32 H9          2.4261    5.5404    3.1569 H         1 <0>         0.0000
     33 H10         2.2708    3.7722    3.0836 H         1 <0>         0.0000
     34 H11        -0.6259    0.9652    0.2307 H         1 <0>         0.0000
     35 H12        -0.2197    0.5004    1.8688 H         1 <0>         0.0000
     36 H13         1.2423    2.5738    0.1722 H         1 <0>         0.0000
     37 H14         1.7108    2.1489    1.8142 H         1 <0>         0.0000
     38 H15         2.9484    0.3859    1.4229 H         1 <0>         0.0000
     39 H16         0.5915   -1.2082    0.2610 H         1 <0>         0.0000
     40 H17         1.4510    4.8315    0.9561 H         1 <0>         0.0000
     41 H18         0.8845    0.1717   -1.5934 H         1 <0>         0.0000
     42 H19         2.2416   -0.6802   -1.2969 H         1 <0>         0.0000
     43 H20         2.7293   -1.1081    5.5287 H         1 <0>         0.0000
     44 H21         2.9499    0.6302    3.4697 H         1 <0>         0.0000
     45 H22         2.7041   -2.3378    0.6655 H         1 <0>         0.0000
@<TRIPOS>BOND
     1    1    2 ar
     2    1    3 ar
     3    2    5 ar
     4    3    6 ar
     5    4    5 ar
     6    4    6 ar
     7    5    7 1
     8    6   23 1
     9    7   17 am
    10    7   19 2
    11    8   13 1
    12    8   18 am
    13    8   20 2
    14    9   15 1
    15   10   15 1
    16   11   12 1
    17   11   14 1
    18   12   22 1
    19   13   14 1
    20   13   21 1
    21   14   16 1
    22   15   22 1
    23   17   18 1
    24    1   24 1
    25    2   25 1
    26    3   26 1
    27    4   27 1
    28    9   28 1
    29    9   29 1
    30    9   30 1
    31   10   31 1
    32   10   32 1
    33   10   33 1
    34   11   34 1
    35   11   35 1
    36   12   36 1
    37   12   37 1
    38   13   38 1
    39   14   39 1
    40   15   40 1
    41   16   41 1
    42   16   42 1
    43   17   43 1
    44   18   44 1
    45   21   45 1
@<TRIPOS>MOLECULE
LIGAND
   45    45     0     0     0
SMALL
NO_CHARGES

@<TRIPOS>ATOM
      1 C1          2.4230   -4.2883    8.5214 C.ar      1 <0>         0.0000
      2 C2          2.6907   -3.9683    7.1905 C.ar      1 <0>         0.0000
      3 C3          2.2530   -3.2726    9.4623 C.ar      1 <0>         0.0000
      4 C4          2.6187   -1.6170    7.7412 C.ar      1 <0>         0.0000
      5 C5          2.7886   -2.6327    6.8003 C.ar      1 <0>         0.0000
      6 C6          2.3509   -1.9370    9.0722 C.ar      1 <0>         0.0000
      7 C7          3.0744   -2.2928    5.3823 C.2       1 <0>         0.0000
      8 C8          1.9325   -1.0133    2.6768 C.2       1 <0>         0.0000
      9 C9         -4.0623    0.8550    1.3177 C.3       1 <0>         0.0000
     10 C10        -3.5584   -1.5885    1.6583 C.3       1 <0>         0.0000
     11 C11         0.2195    0.8307    0.9188 C.3       1 <0>         0.0000
     12 C12        -1.0001    1.1700    0.0549 C.3       1 <0>         0.0000
     13 C13         2.3649   -0.5352    1.2935 C.3       1 <0>         0.0000
     14 C14         1.1534   -0.2750    0.3710 C.3       1 <0>         0.0000
     15 C15        -2.9754   -0.2124    1.3599 C.3       1 <0>         0.0000
     16 N1          1.6681    0.0834   -0.9557 N.3       1 <0>         0.0000
     17 N2          2.6023   -1.0670    4.9540 N.am      1 <0>         0.0000
     18 N3          2.8469   -0.6810    3.6590 N.am      1 <0>         0.0000
     19 O1          3.7083   -3.0847    4.6892 O.2       1 <0>         0.0000
     20 O2          0.8915   -1.6405    2.8632 O.2       1 <0>         0.0000
     21 O3          3.2186   -1.5159    0.7230 O.3       1 <0>         0.0000
     22 S1         -2.0977   -0.2515   -0.2193 S.3       1 <0>         0.0000
     23 Cl1         2.1407   -0.6842   10.2336 Cl        1 <0>         0.0000
     24 H1          2.3465   -5.3282    8.8249 H         1 <0>         0.0000
     25 H2          2.8213   -4.7686    6.4665 H         1 <0>         0.0000
     26 H3          2.0449   -3.5371   10.4958 H         1 <0>         0.0000
     27 H4          2.6951   -0.5760    7.4338 H         1 <0>         0.0000
     28 H5         -4.8019    0.6148    0.5457 H         1 <0>         0.0000
     29 H6         -4.5966    0.9180    2.2722 H         1 <0>         0.0000
     30 H7         -3.6542    1.8453    1.0855 H         1 <0>         0.0000
     31 H8         -4.2902   -1.8663    0.8915 H         1 <0>         0.0000
     32 H9         -4.0769   -1.6012    2.6234 H         1 <0>         0.0000
     33 H10        -2.7856   -2.3656    1.6725 H         1 <0>         0.0000
     34 H11        -0.1531    0.5335    1.9082 H         1 <0>         0.0000
     35 H12         0.7975    1.7493    1.0822 H         1 <0>         0.0000
     36 H13        -0.6573    1.5138   -0.9268 H         1 <0>         0.0000
     37 H14        -1.5832    1.9849    0.4933 H         1 <0>         0.0000
     38 H15         2.9484    0.3859    1.4229 H         1 <0>         0.0000
     39 H16         0.5915   -1.2082    0.2610 H         1 <0>         0.0000
     40 H17        -2.2476    0.0460    2.1366 H         1 <0>         0.0000
     41 H18         0.8845    0.1717   -1.5934 H         1 <0>         0.0000
     42 H19         2.2416   -0.6802   -1.2969 H         1 <0>         0.0000
     43 H20         2.0849   -0.4638    5.5841 H         1 <0>         0.0000
     44 H21         3.6858   -0.1599    3.4266 H         1 <0>         0.0000
     45 H22         2.7041   -2.3378    0.6655 H         1 <0>         0.0000
@<TRIPOS>BOND
     1    1    2 ar
     2    1    3 ar
     3    2    5 ar
     4    3    6 ar
     5    4    5 ar
     6    4    6 ar
     7    5    7 1
     8    6   23 1
     9    7   17 am
    10    7   19 2
    11    8   13 1
    12    8   18 am
    13    8   20 2
    14    9   15 1
    15   10   15 1
    16   11   12 1
    17   11   14 1
    18   12   22 1
    19   13   14 1
    20   13   21 1
    21   14   16 1
    22   15   22 1
    23   17   18 1
    24    1   24 1
    25    2   25 1
    26    3   26 1
    27    4   27 1
    28    9   28 1
    29    9   29 1
    30    9   30 1
    31   10   31 1
    32   10   32 1
    33   10   33 1
    34   11   34 1
    35   11   35 1
    36   12   36 1
    37   12   37 1
    38   13   38 1
    39   14   39 1
    40   15   40 1
    41   16   41 1
    42   16   42 1
    43   17   43 1
    44   18   44 1
    45   21   45 1
@<TRIPOS>MOLECULE
LIGAND
   45    45     0     0     0
SMALL
NO_CHARGES

@<TRIPOS>ATOM
      1 C1          1.5193   -1.1198    9.1205 C.ar      1 <0>         0.0000
      2 C2          1.7609   -0.7407    7.8001 C.ar      1 <0>         0.0000
      3 C3          0.2116   -1.1709    9.6034 C.ar      1 <0>         0.0000
      4 C4         -0.6128   -0.4635    7.4454 C.ar      1 <0>         0.0000
      5 C5          0.6949   -0.4125    6.9626 C.ar      1 <0>         0.0000
      6 C6         -0.8544   -0.8427    8.7658 C.ar      1 <0>         0.0000
      7 C7          0.9532   -0.0081    5.5563 C.2       1 <0>         0.0000
      8 C8          1.9325   -1.0133    2.6768 C.2       1 <0>         0.0000
      9 C9          0.0309    6.1524    1.8816 C.3       1 <0>         0.0000
     10 C10         1.7102    4.7140    3.0862 C.3       1 <0>         0.0000
     11 C11         0.2195    0.8307    0.9188 C.3       1 <0>         0.0000
     12 C12         0.8590    2.2074    1.1305 C.3       1 <0>         0.0000
     13 C13         2.3649   -0.5352    1.2935 C.3       1 <0>         0.0000
     14 C14         1.1534   -0.2750    0.3710 C.3       1 <0>         0.0000
     15 C15         0.8241    4.8515    1.8540 C.3       1 <0>         0.0000
     16 N1          1.6681    0.0834   -0.9557 N.3       1 <0>         0.0000
     17 N2          2.1084   -0.5131    4.9911 N.am      1 <0>         0.0000
     18 N3          2.3999   -0.1941    3.6876 N.am      1 <0>         0.0000
     19 O1          0.1465    0.7178    4.9806 O.2       1 <0>         0.0000
     20 O2          1.2610   -2.0296    2.8442 O.2       1 <0>         0.0000
     21 O3          3.2186   -1.5159    0.7230 O.3       1 <0>         0.0000
     22 S1         -0.3102    3.4478    1.7590 S.3       1 <0>         0.0000
     23 Cl1        -2.4677   -0.9064    9.3621 Cl        1 <0>         0.0000
     24 H1          2.3494   -1.3756    9.7724 H         1 <0>         0.0000
     25 H2          2.7843   -0.7045    7.4354 H         1 <0>         0.0000
     26 H3          0.0388   -1.4681   10.6345 H         1 <0>         0.0000
     27 H4         -1.4425   -0.2075    6.7896 H         1 <0>         0.0000
     28 H5         -0.6040    6.1923    2.7738 H         1 <0>         0.0000
     29 H6          0.6947    7.0236    1.9150 H         1 <0>         0.0000
     30 H7         -0.6232    6.2512    1.0077 H         1 <0>         0.0000
     31 H8          1.1011    4.7317    3.9969 H         1 <0>         0.0000
     32 H9          2.4261    5.5404    3.1569 H         1 <0>         0.0000
     33 H10         2.2708    3.7722    3.0836 H         1 <0>         0.0000
     34 H11        -0.6259    0.9652    0.2307 H         1 <0>         0.0000
     35 H12        -0.2197    0.5004    1.8688 H         1 <0>         0.0000
     36 H13         1.2423    2.5738    0.1722 H         1 <0>         0.0000
     37 H14         1.7108    2.1489    1.8142 H         1 <0>         0.0000
     38 H15         2.9484    0.3859    1.4229 H         1 <0>         0.0000
     39 H16         0.5915   -1.2082    0.2610 H         1 <0>         0.0000
     40 H17         1.4510    4.8315    0.9561 H         1 <0>         0.0000
     41 H18         0.8845    0.1717   -1.5934 H         1 <0>         0.0000
     42 H19         2.2416   -0.6802   -1.2969 H         1 <0>         0.0000
     43 H20         2.7293   -1.1081    5.5287 H         1 <0>         0.0000
     44 H21         2.9499    0.6302    3.4697 H         1 <0>         0.0000
     45 H22         2.7041   -2.3378    0.6655 H         1 <0>         0.0000
@<TRIPOS>BOND
     1    1    2 ar
     2    1    3 ar
     3    2    5 ar
     4    3    6 ar
     5    4    5 ar
     6    4    6 ar
     7    5    7 1
     8    6   23 1
     9    7   17 am
    10    7   19 2
    11    8   13 1
    12    8   18 am
    13    8   20 2
    14    9   15 1
    15   10   15 1
    16   11   12 1
    17   11   14 1
    18   12   22 1
    19   13   14 1
    20   13   21 1
    21   14   16 1
    22   15   22 1
    23   17   18 1
    24    1   24 1
    25    2   25 1
    26    3   26 1
    27    4   27 1
    28    9   28 1
    29    9   29 1
    30    9   30 1
    31   10   31 1
    32   10   32 1
    33   10   33 1
    34   11   34 1
    35   11   35 1
    36   12   36 1
    37   12   37 1
    38   13   38 1
    39   14   39 1
    40   15   40 1
    41   16   41 1
    42   16   42 1
    43   17   43 1
    44   18   44 1
    45   21   45 1
@<TRIPOS>MOLECULE
LIGAND
   45    45     0     0     0
SMALL
NO_CHARGES

@<TRIPOS>ATOM
      1 C1          1.3691   -2.5452    8.7036 C.ar      1 <0>         0.0000
      2 C2          1.5963   -2.0804    7.4082 C.ar      1 <0>         0.0000
      3 C3          1.1963   -1.6386    9.7496 C.ar      1 <0>         0.0000
      4 C4          1.4779    0.1975    8.2048 C.ar      1 <0>         0.0000
      5 C5          1.6507   -0.7090    7.1588 C.ar      1 <0>         0.0000
      6 C6          1.2507   -0.2673    9.5002 C.ar      1 <0>         0.0000
      7 C7          1.8934   -0.2148    5.7787 C.2       1 <0>         0.0000
      8 C8          1.9325   -1.0133    2.6768 C.2       1 <0>         0.0000
      9 C9         -2.8396    0.6809   -2.6742 C.3       1 <0>         0.0000
     10 C10        -4.6560   -0.1960   -1.1670 C.3       1 <0>         0.0000
     11 C11         0.2195    0.8307    0.9188 C.3       1 <0>         0.0000
     12 C12        -1.0001    1.1700    0.0549 C.3       1 <0>         0.0000
     13 C13         2.3649   -0.5352    1.2935 C.3       1 <0>         0.0000
     14 C14         1.1534   -0.2750    0.3710 C.3       1 <0>         0.0000
     15 C15        -3.3416    0.5718   -1.2395 C.3       1 <0>         0.0000
     16 N1          1.6681    0.0834   -0.9557 N.3       1 <0>         0.0000
     17 N2          2.6023   -1.0670    4.9540 N.am      1 <0>         0.0000
     18 N3          2.8469   -0.6810    3.6590 N.am      1 <0>         0.0000
     19 O1          1.4534    0.8829    5.4461 O.2       1 <0>         0.0000
     20 O2          0.8915   -1.6405    2.8632 O.2       1 <0>         0.0000
     21 O3          3.2186   -1.5159    0.7230 O.3       1 <0>         0.0000
     22 S1         -2.0977   -0.2515   -0.2193 S.3       1 <0>         0.0000
     23 Cl1         1.0368    0.8507   10.7913 Cl        1 <0>         0.0000
     24 H1          1.3265   -3.6129    8.8975 H         1 <0>         0.0000
     25 H2          1.7296   -2.7965    6.6014 H         1 <0>         0.0000
     26 H3          1.0200   -2.0156   10.7537 H         1 <0>         0.0000
     27 H4          1.5203    1.2667    8.0072 H         1 <0>         0.0000
     28 H5         -2.6847   -0.3167   -3.1002 H         1 <0>         0.0000
     29 H6         -3.5648    1.1984   -3.3121 H         1 <0>         0.0000
     30 H7         -1.8850    1.2160   -2.7338 H         1 <0>         0.0000
     31 H8         -4.5291   -1.2071   -1.5698 H         1 <0>         0.0000
     32 H9         -5.4375    0.2943   -1.7580 H         1 <0>         0.0000
     33 H10        -5.0153   -0.2952   -0.1363 H         1 <0>         0.0000
     34 H11        -0.1531    0.5335    1.9082 H         1 <0>         0.0000
     35 H12         0.7975    1.7493    1.0822 H         1 <0>         0.0000
     36 H13        -0.6573    1.5138   -0.9268 H         1 <0>         0.0000
     37 H14        -1.5832    1.9849    0.4933 H         1 <0>         0.0000
     38 H15         2.9484    0.3859    1.4229 H         1 <0>         0.0000
     39 H16         0.5915   -1.2082    0.2610 H         1 <0>         0.0000
     40 H17        -3.4899    1.5778   -0.8328 H         1 <0>         0.0000
     41 H18         0.8845    0.1717   -1.5934 H         1 <0>         0.0000
     42 H19         2.2416   -0.6802   -1.2969 H         1 <0>         0.0000
     43 H20         2.9356   -1.9607    5.2985 H         1 <0>         0.0000
     44 H21         3.6858   -0.1599    3.4266 H         1 <0>         0.0000
     45 H22         2.7041   -2.3378    0.6655 H         1 <0>         0.0000
@<TRIPOS>BOND
     1    1    2 ar
     2    1    3 ar
     3    2    5 ar
     4    3    6 ar
     5    4    5 ar
     6    4    6 ar
     7    5    7 1
     8    6   23 1
     9    7   17 am
    10    7   19 2
    11    8   13 1
    12    8   18 am
    13    8   20 2
    14    9   15 1
    15   10   15 1
    16   11   12 1
    17   11   14 1
    18   12   22 1
    19   13   14 1
    20   13   21 1
    21   14   16 1
    22   15   22 1
    23   17   18 1
    24    1   24 1
    25    2   25 1
    26    3   26 1
    27    4   27 1
    28    9   28 1
    29    9   29 1
    30    9   30 1
    31   10   31 1
    32   10   32 1
    33   10   33 1
    34   11   34 1
    35   11   35 1
    36   12   36 1
    37   12   37 1
    38   13   38 1
    39   14   39 1
    40   15   40 1
    41   16   41 1
    42   16   42 1
    43   17   43 1
    44   18   44 1
    45   21   45 1
@<TRIPOS>MOLECULE
LIGAND
   45    45     0     0     0
SMALL
NO_CHARGES

@<TRIPOS>ATOM
      1 C1         -1.7508   -1.5308    8.2465 C.ar      1 <0>         0.0000
      2 C2         -1.4530   -1.2202    6.9197 C.ar      1 <0>         0.0000
      3 C3         -0.8322   -1.2379    9.2545 C.ar      1 <0>         0.0000
      4 C4          0.6821   -0.3238    7.6089 C.ar      1 <0>         0.0000
      5 C5         -0.2366   -0.6167    6.6009 C.ar      1 <0>         0.0000
      6 C6          0.3843   -0.6344    8.9357 C.ar      1 <0>         0.0000
      7 C7          0.0801   -0.2867    5.1871 C.2       1 <0>         0.0000
      8 C8          1.9325   -1.0133    2.6768 C.2       1 <0>         0.0000
      9 C9         -1.3566    4.2423   -1.1718 C.3       1 <0>         0.0000
     10 C10        -1.3823    5.0762    1.2040 C.3       1 <0>         0.0000
     11 C11         0.2195    0.8307    0.9188 C.3       1 <0>         0.0000
     12 C12        -1.0001    1.1700    0.0549 C.3       1 <0>         0.0000
     13 C13         2.3649   -0.5352    1.2935 C.3       1 <0>         0.0000
     14 C14         1.1534   -0.2750    0.3710 C.3       1 <0>         0.0000
     15 C15        -1.0699    3.9009    0.2855 C.3       1 <0>         0.0000
     16 N1          1.6681    0.0834   -0.9557 N.3       1 <0>         0.0000
     17 N2          1.4238   -0.2520    4.8674 N.am      1 <0>         0.0000
     18 N3          1.7877    0.0290    3.5734 N.am      1 <0>         0.0000
     19 O1         -0.8375   -0.0833    4.3961 O.2       1 <0>         0.0000
     20 O2          1.7602   -2.2018    2.9407 O.2       1 <0>         0.0000
     21 O3          3.2186   -1.5159    0.7230 O.3       1 <0>         0.0000
     22 S1         -2.0492    2.4644    0.7791 S.3       1 <0>         0.0000
     23 Cl1         1.5171   -0.2728   10.1801 Cl        1 <0>         0.0000
     24 H1         -2.6981   -2.0004    8.4946 H         1 <0>         0.0000
     25 H2         -2.1768   -1.4534    6.1430 H         1 <0>         0.0000
     26 H3         -1.0781   -1.4858   10.2839 H         1 <0>         0.0000
     27 H4          1.6301    0.1476    7.3573 H         1 <0>         0.0000
     28 H5         -2.4105    4.5137   -1.2989 H         1 <0>         0.0000
     29 H6         -0.7576    5.0967   -1.5064 H         1 <0>         0.0000
     30 H7         -1.1520    3.3963   -1.8378 H         1 <0>         0.0000
     31 H8         -2.4367    5.3604    1.1134 H         1 <0>         0.0000
     32 H9         -0.7841    5.9563    0.9431 H         1 <0>         0.0000
     33 H10        -1.1964    4.8333    2.2564 H         1 <0>         0.0000
     34 H11        -0.1531    0.5335    1.9082 H         1 <0>         0.0000
     35 H12         0.7975    1.7493    1.0822 H         1 <0>         0.0000
     36 H13        -1.6176    0.2727   -0.0585 H         1 <0>         0.0000
     37 H14        -0.7009    1.4813   -0.9501 H         1 <0>         0.0000
     38 H15         2.9484    0.3859    1.4229 H         1 <0>         0.0000
     39 H16         0.5915   -1.2082    0.2610 H         1 <0>         0.0000
     40 H17        -0.0132    3.6330    0.3910 H         1 <0>         0.0000
     41 H18         0.8845    0.1717   -1.5934 H         1 <0>         0.0000
     42 H19         2.2416   -0.6802   -1.2969 H         1 <0>         0.0000
     43 H20         2.1281   -0.4306    5.5750 H         1 <0>         0.0000
     44 H21         1.9478    0.9869    3.2798 H         1 <0>         0.0000
     45 H22         2.7041   -2.3378    0.6655 H         1 <0>         0.0000
@<TRIPOS>BOND
     1    1    2 ar
     2    1    3 ar
     3    2    5 ar
     4    3    6 ar
     5    4    5 ar
     6    4    6 ar
     7    5    7 1
     8    6   23 1
     9    7   17 am
    10    7   19 2
    11    8   13 1
    12    8   18 am
    13    8   20 2
    14    9   15 1
    15   10   15 1
    16   11   12 1
    17   11   14 1
    18   12   22 1
    19   13   14 1
    20   13   21 1
    21   14   16 1
    22   15   22 1
    23   17   18 1
    24    1   24 1
    25    2   25 1
    26    3   26 1
    27    4   27 1
    28    9   28 1
    29    9   29 1
    30    9   30 1
    31   10   31 1
    32   10   32 1
    33   10   33 1
    34   11   34 1
    35   11   35 1
    36   12   36 1
    37   12   37 1
    38   13   38 1
    39   14   39 1
    40   15   40 1
    41   16   41 1
    42   16   42 1
    43   17   43 1
    44   18   44 1
    45   21   45 1
@<TRIPOS>MOLECULE
LIGAND
   45    45     0     0     0
SMALL
NO_CHARGES

@<TRIPOS>ATOM
      1 C1          1.3200   -1.9638    8.8676 C.ar      1 <0>         0.0000
      2 C2          1.6218   -1.5213    7.5797 C.ar      1 <0>         0.0000
      3 C3          2.1606   -1.6378    9.9320 C.ar      1 <0>         0.0000
      4 C4          3.6050   -0.4271    8.4204 C.ar      1 <0>         0.0000
      5 C5          2.7643   -0.7530    7.3561 C.ar      1 <0>         0.0000
      6 C6          3.3031   -0.8695    9.7084 C.ar      1 <0>         0.0000
      7 C7          3.0854   -0.2826    5.9837 C.2       1 <0>         0.0000
      8 C8          1.9325   -1.0133    2.6768 C.2       1 <0>         0.0000
      9 C9         -4.0623    0.8550    1.3177 C.3       1 <0>         0.0000
     10 C10        -3.5584   -1.5885    1.6583 C.3       1 <0>         0.0000
     11 C11         0.2195    0.8307    0.9188 C.3       1 <0>         0.0000
     12 C12        -1.0001    1.1700    0.0549 C.3       1 <0>         0.0000
     13 C13         2.3649   -0.5352    1.2935 C.3       1 <0>         0.0000
     14 C14         1.1534   -0.2750    0.3710 C.3       1 <0>         0.0000
     15 C15        -2.9754   -0.2124    1.3599 C.3       1 <0>         0.0000
     16 N1          1.6681    0.0834   -0.9557 N.3       1 <0>         0.0000
     17 N2          2.6023   -1.0670    4.9540 N.am      1 <0>         0.0000
     18 N3          2.8469   -0.6810    3.6590 N.am      1 <0>         0.0000
     19 O1          3.7293    0.7533    5.8374 O.2       1 <0>         0.0000
     20 O2          0.8915   -1.6405    2.8632 O.2       1 <0>         0.0000
     21 O3          3.2186   -1.5159    0.7230 O.3       1 <0>         0.0000
     22 S1         -2.0977   -0.2515   -0.2193 S.3       1 <0>         0.0000
     23 Cl1         4.3397   -0.4674   11.0222 Cl        1 <0>         0.0000
     24 H1          0.4302   -2.5616    9.0415 H         1 <0>         0.0000
     25 H2          0.9591   -1.7818    6.7584 H         1 <0>         0.0000
     26 H3          1.9126   -1.9897   10.9300 H         1 <0>         0.0000
     27 H4          4.4953    0.1729    8.2431 H         1 <0>         0.0000
     28 H5         -4.8019    0.6148    0.5457 H         1 <0>         0.0000
     29 H6         -4.5966    0.9180    2.2722 H         1 <0>         0.0000
     30 H7         -3.6542    1.8453    1.0855 H         1 <0>         0.0000
     31 H8         -4.2902   -1.8663    0.8915 H         1 <0>         0.0000
     32 H9         -4.0769   -1.6012    2.6234 H         1 <0>         0.0000
     33 H10        -2.7856   -2.3656    1.6725 H         1 <0>         0.0000
     34 H11        -0.1531    0.5335    1.9082 H         1 <0>         0.0000
     35 H12         0.7975    1.7493    1.0822 H         1 <0>         0.0000
     36 H13        -0.6573    1.5138   -0.9268 H         1 <0>         0.0000
     37 H14        -1.5832    1.9849    0.4933 H         1 <0>         0.0000
     38 H15         2.9484    0.3859    1.4229 H         1 <0>         0.0000
     39 H16         0.5915   -1.2082    0.2610 H         1 <0>         0.0000
     40 H17        -2.2476    0.0460    2.1366 H         1 <0>         0.0000
     41 H18         0.8845    0.1717   -1.5934 H         1 <0>         0.0000
     42 H19         2.2416   -0.6802   -1.2969 H         1 <0>         0.0000
     43 H20         2.0769   -1.9119    5.1509 H         1 <0>         0.0000
     44 H21         3.6858   -0.1599    3.4266 H         1 <0>         0.0000
     45 H22         2.7041   -2.3378    0.6655 H         1 <0>         0.0000
@<TRIPOS>BOND
     1    1    2 ar
     2    1    3 ar
     3    2    5 ar
     4    3    6 ar
     5    4    5 ar
     6    4    6 ar
     7    5    7 1
     8    6   23 1
     9    7   17 am
    10    7   19 2
    11    8   13 1
    12    8   18 am
    13    8   20 2
    14    9   15 1
    15   10   15 1
    16   11   12 1
    17   11   14 1
    18   12   22 1
    19   13   14 1
    20   13   21 1
    21   14   16 1
    22   15   22 1
    23   17   18 1
    24    1   24 1
    25    2   25 1
    26    3   26 1
    27    4   27 1
    28    9   28 1
    29    9   29 1
    30    9   30 1
    31   10   31 1
    32   10   32 1
    33   10   33 1
    34   11   34 1
    35   11   35 1
    36   12   36 1
    37   12   37 1
    38   13   38 1
    39   14   39 1
    40   15   40 1
    41   16   41 1
    42   16   42 1
    43   17   43 1
    44   18   44 1
    45   21   45 1
@<TRIPOS>MOLECULE
LIGAND
   45    45     0     0     0
SMALL
NO_CHARGES

@<TRIPOS>ATOM
      1 C1          0.3537   -1.6987    8.6788 C.ar      1 <0>         0.0000
      2 C2          0.6500   -1.3890    7.3514 C.ar      1 <0>         0.0000
      3 C3         -0.8291   -1.2362    9.2556 C.ar      1 <0>         0.0000
      4 C4         -1.4194   -0.1541    7.1777 C.ar      1 <0>         0.0000
      5 C5         -0.2366   -0.6167    6.6009 C.ar      1 <0>         0.0000
      6 C6         -1.7156   -0.4639    8.5051 C.ar      1 <0>         0.0000
      7 C7          0.0801   -0.2867    5.1871 C.2       1 <0>         0.0000
      8 C8          1.9325   -1.0133    2.6768 C.2       1 <0>         0.0000
      9 C9         -4.2967    1.3927   -0.3375 C.3       1 <0>         0.0000
     10 C10        -4.0071    3.8901   -0.4781 C.3       1 <0>         0.0000
     11 C11         0.2195    0.8307    0.9188 C.3       1 <0>         0.0000
     12 C12        -1.0001    1.1700    0.0549 C.3       1 <0>         0.0000
     13 C13         2.3649   -0.5352    1.2935 C.3       1 <0>         0.0000
     14 C14         1.1534   -0.2750    0.3710 C.3       1 <0>         0.0000
     15 C15        -3.3066    2.5373   -0.5169 C.3       1 <0>         0.0000
     16 N1          1.6681    0.0834   -0.9557 N.3       1 <0>         0.0000
     17 N2          1.4238   -0.2520    4.8674 N.am      1 <0>         0.0000
     18 N3          1.7877    0.0290    3.5734 N.am      1 <0>         0.0000
     19 O1         -0.8375   -0.0833    4.3961 O.2       1 <0>         0.0000
     20 O2          1.7602   -2.2018    2.9407 O.2       1 <0>         0.0000
     21 O3          3.2186   -1.5159    0.7230 O.3       1 <0>         0.0000
     22 S1         -2.0492    2.4644    0.7791 S.3       1 <0>         0.0000
     23 Cl1        -3.1752    0.1061    9.2174 Cl        1 <0>         0.0000
     24 H1          1.0439   -2.3003    9.2628 H         1 <0>         0.0000
     25 H2          1.5748   -1.7550    6.9130 H         1 <0>         0.0000
     26 H3         -1.0465   -1.4855   10.2910 H         1 <0>         0.0000
     27 H4         -2.1094    0.4477    6.5897 H         1 <0>         0.0000
     28 H5         -4.8186    1.4878    0.6213 H         1 <0>         0.0000
     29 H6         -5.0586    1.3975   -1.1249 H         1 <0>         0.0000
     30 H7         -3.7990    0.4164   -0.3457 H         1 <0>         0.0000
     31 H8         -4.5245    4.0235    0.4785 H         1 <0>         0.0000
     32 H9         -4.7599    3.9723   -1.2700 H         1 <0>         0.0000
     33 H10        -3.2998    4.7201   -0.5881 H         1 <0>         0.0000
     34 H11        -0.1531    0.5335    1.9082 H         1 <0>         0.0000
     35 H12         0.7975    1.7493    1.0822 H         1 <0>         0.0000
     36 H13        -1.6176    0.2727   -0.0585 H         1 <0>         0.0000
     37 H14        -0.7009    1.4813   -0.9501 H         1 <0>         0.0000
     38 H15         2.9484    0.3859    1.4229 H         1 <0>         0.0000
     39 H16         0.5915   -1.2082    0.2610 H         1 <0>         0.0000
     40 H17        -2.7965    2.4239   -1.4795 H         1 <0>         0.0000
     41 H18         0.8845    0.1717   -1.5934 H         1 <0>         0.0000
     42 H19         2.2416   -0.6802   -1.2969 H         1 <0>         0.0000
     43 H20         2.1281   -0.4306    5.5750 H         1 <0>         0.0000
     44 H21         1.9478    0.9869    3.2798 H         1 <0>         0.0000
     45 H22         2.7041   -2.3378    0.6655 H         1 <0>         0.0000
@<TRIPOS>BOND
     1    1    2 ar
     2    1    3 ar
     3    2    5 ar
     4    3    6 ar
     5    4    5 ar
     6    4    6 ar
     7    5    7 1
     8    6   23 1
     9    7   17 am
    10    7   19 2
    11    8   13 1
    12    8   18 am
    13    8   20 2
    14    9   15 1
    15   10   15 1
    16   11   12 1
    17   11   14 1
    18   12   22 1
    19   13   14 1
    20   13   21 1
    21   14   16 1
    22   15   22 1
    23   17   18 1
    24    1   24 1
    25    2   25 1
    26    3   26 1
    27    4   27 1
    28    9   28 1
    29    9   29 1
    30    9   30 1
    31   10   31 1
    32   10   32 1
    33   10   33 1
    34   11   34 1
    35   11   35 1
    36   12   36 1
    37   12   37 1
    38   13   38 1
    39   14   39 1
    40   15   40 1
    41   16   41 1
    42   16   42 1
    43   17   43 1
    44   18   44 1
    45   21   45 1
@<TRIPOS>MOLECULE
LIGAND
   45    45     0     0     0
SMALL
NO_CHARGES

@<TRIPOS>ATOM
      1 C1          3.9068   -1.8228    9.5212 C.ar      1 <0>         0.0000
      2 C2          4.2280   -1.4546    8.2148 C.ar      1 <0>         0.0000
      3 C3          2.6909   -2.4514    9.7897 C.ar      1 <0>         0.0000
      4 C4          2.1173   -2.3434    7.4453 C.ar      1 <0>         0.0000
      5 C5          3.3333   -1.7148    7.1768 C.ar      1 <0>         0.0000
      6 C6          1.7961   -2.7117    8.7518 C.ar      1 <0>         0.0000
      7 C7          3.6760   -1.3216    5.7855 C.2       1 <0>         0.0000
      8 C8          1.9325   -1.0133    2.6768 C.2       1 <0>         0.0000
      9 C9          0.9492    3.5395    4.1781 C.3       1 <0>         0.0000
     10 C10        -1.5671    3.4454    4.1811 C.3       1 <0>         0.0000
     11 C11         0.2195    0.8307    0.9188 C.3       1 <0>         0.0000
     12 C12         0.8590    2.2074    1.1305 C.3       1 <0>         0.0000
     13 C13         2.3649   -0.5352    1.2935 C.3       1 <0>         0.0000
     14 C14         1.1534   -0.2750    0.3710 C.3       1 <0>         0.0000
     15 C15        -0.2901    2.9668    3.5009 C.3       1 <0>         0.0000
     16 N1          1.6681    0.0834   -0.9557 N.3       1 <0>         0.0000
     17 N2          2.6023   -1.0670    4.9540 N.am      1 <0>         0.0000
     18 N3          2.8469   -0.6810    3.6590 N.am      1 <0>         0.0000
     19 O1          4.8567   -1.2304    5.4589 O.2       1 <0>         0.0000
     20 O2          0.8915   -1.6405    2.8632 O.2       1 <0>         0.0000
     21 O3          3.2186   -1.5159    0.7230 O.3       1 <0>         0.0000
     22 S1         -0.3102    3.4478    1.7590 S.3       1 <0>         0.0000
     23 Cl1         0.2961   -3.4877    9.0838 Cl        1 <0>         0.0000
     24 H1          4.6037   -1.6204   10.3291 H         1 <0>         0.0000
     25 H2          5.1785   -0.9653    8.0180 H         1 <0>         0.0000
     26 H3          2.4542   -2.7326   10.8127 H         1 <0>         0.0000
     27 H4          1.4214   -2.5457    6.6335 H         1 <0>         0.0000
     28 H5          0.9275    4.6347    4.1481 H         1 <0>         0.0000
     29 H6          1.0005    3.2436    5.2319 H         1 <0>         0.0000
     30 H7          1.8721    3.2151    3.6839 H         1 <0>         0.0000
     31 H8         -1.6274    4.5391    4.1512 H         1 <0>         0.0000
     32 H9         -1.5938    3.1464    5.2349 H         1 <0>         0.0000
     33 H10        -2.4642    3.0528    3.6891 H         1 <0>         0.0000
     34 H11        -0.6259    0.9652    0.2307 H         1 <0>         0.0000
     35 H12        -0.2197    0.5004    1.8688 H         1 <0>         0.0000
     36 H13         1.2423    2.5738    0.1722 H         1 <0>         0.0000
     37 H14         1.7108    2.1489    1.8142 H         1 <0>         0.0000
     38 H15         2.9484    0.3859    1.4229 H         1 <0>         0.0000
     39 H16         0.5915   -1.2082    0.2610 H         1 <0>         0.0000
     40 H17        -0.2491    1.8731    3.5416 H         1 <0>         0.0000
     41 H18         0.8845    0.1717   -1.5934 H         1 <0>         0.0000
     42 H19         2.2416   -0.6802   -1.2969 H         1 <0>         0.0000
     43 H20         1.6516   -1.1634    5.2936 H         1 <0>         0.0000
     44 H21         3.6858   -0.1599    3.4266 H         1 <0>         0.0000
     45 H22         2.7041   -2.3378    0.6655 H         1 <0>         0.0000
@<TRIPOS>BOND
     1    1    2 ar
     2    1    3 ar
     3    2    5 ar
     4    3    6 ar
     5    4    5 ar
     6    4    6 ar
     7    5    7 1
     8    6   23 1
     9    7   17 am
    10    7   19 2
    11    8   13 1
    12    8   18 am
    13    8   20 2
    14    9   15 1
    15   10   15 1
    16   11   12 1
    17   11   14 1
    18   12   22 1
    19   13   14 1
    20   13   21 1
    21   14   16 1
    22   15   22 1
    23   17   18 1
    24    1   24 1
    25    2   25 1
    26    3   26 1
    27    4   27 1
    28    9   28 1
    29    9   29 1
    30    9   30 1
    31   10   31 1
    32   10   32 1
    33   10   33 1
    34   11   34 1
    35   11   35 1
    36   12   36 1
    37   12   37 1
    38   13   38 1
    39   14   39 1
    40   15   40 1
    41   16   41 1
    42   16   42 1
    43   17   43 1
    44   18   44 1
    45   21   45 1
@<TRIPOS>MOLECULE
LIGAND
   45    45     0     0     0
SMALL
NO_CHARGES

@<TRIPOS>ATOM
      1 C1          3.3047   -0.8664    9.7081 C.ar      1 <0>         0.0000
      2 C2          3.6057   -0.4258    8.4194 C.ar      1 <0>         0.0000
      3 C3          2.1622   -1.6344    9.9335 C.ar      1 <0>         0.0000
      4 C4          1.6219   -1.5209    7.5815 C.ar      1 <0>         0.0000
      5 C5          2.7643   -0.7530    7.3561 C.ar      1 <0>         0.0000
      6 C6          1.3208   -1.9616    8.8702 C.ar      1 <0>         0.0000
      7 C7          3.0854   -0.2826    5.9837 C.2       1 <0>         0.0000
      8 C8          1.9325   -1.0133    2.6768 C.2       1 <0>         0.0000
      9 C9         -4.0623    0.8550    1.3177 C.3       1 <0>         0.0000
     10 C10        -3.5584   -1.5885    1.6583 C.3       1 <0>         0.0000
     11 C11         0.2195    0.8307    0.9188 C.3       1 <0>         0.0000
     12 C12        -1.0001    1.1700    0.0549 C.3       1 <0>         0.0000
     13 C13         2.3649   -0.5352    1.2935 C.3       1 <0>         0.0000
     14 C14         1.1534   -0.2750    0.3710 C.3       1 <0>         0.0000
     15 C15        -2.9754   -0.2124    1.3599 C.3       1 <0>         0.0000
     16 N1          1.6681    0.0834   -0.9557 N.3       1 <0>         0.0000
     17 N2          2.6023   -1.0670    4.9540 N.am      1 <0>         0.0000
     18 N3          2.8469   -0.6810    3.6590 N.am      1 <0>         0.0000
     19 O1          3.7293    0.7533    5.8374 O.2       1 <0>         0.0000
     20 O2          0.8915   -1.6405    2.8632 O.2       1 <0>         0.0000
     21 O3          3.2186   -1.5159    0.7230 O.3       1 <0>         0.0000
     22 S1         -2.0977   -0.2515   -0.2193 S.3       1 <0>         0.0000
     23 Cl1        -0.0884   -2.9097    9.1490 Cl        1 <0>         0.0000
     24 H1          3.9601   -0.6118   10.5358 H         1 <0>         0.0000
     25 H2          4.4987    0.1721    8.2563 H         1 <0>         0.0000
     26 H3          1.9405   -1.9706   10.9431 H         1 <0>         0.0000
     27 H4          0.9676   -1.7751    6.7500 H         1 <0>         0.0000
     28 H5         -4.8019    0.6148    0.5457 H         1 <0>         0.0000
     29 H6         -4.5966    0.9180    2.2722 H         1 <0>         0.0000
     30 H7         -3.6542    1.8453    1.0855 H         1 <0>         0.0000
     31 H8         -4.2902   -1.8663    0.8915 H         1 <0>         0.0000
     32 H9         -4.0769   -1.6012    2.6234 H         1 <0>         0.0000
     33 H10        -2.7856   -2.3656    1.6725 H         1 <0>         0.0000
     34 H11        -0.1531    0.5335    1.9082 H         1 <0>         0.0000
     35 H12         0.7975    1.7493    1.0822 H         1 <0>         0.0000
     36 H13        -0.6573    1.5138   -0.9268 H         1 <0>         0.0000
     37 H14        -1.5832    1.9849    0.4933 H         1 <0>         0.0000
     38 H15         2.9484    0.3859    1.4229 H         1 <0>         0.0000
     39 H16         0.5915   -1.2082    0.2610 H         1 <0>         0.0000
     40 H17        -2.2476    0.0460    2.1366 H         1 <0>         0.0000
     41 H18         0.8845    0.1717   -1.5934 H         1 <0>         0.0000
     42 H19         2.2416   -0.6802   -1.2969 H         1 <0>         0.0000
     43 H20         2.0769   -1.9119    5.1509 H         1 <0>         0.0000
     44 H21         3.6858   -0.1599    3.4266 H         1 <0>         0.0000
     45 H22         2.7041   -2.3378    0.6655 H         1 <0>         0.0000
@<TRIPOS>BOND
     1    1    2 ar
     2    1    3 ar
     3    2    5 ar
     4    3    6 ar
     5    4    5 ar
     6    4    6 ar
     7    5    7 1
     8    6   23 1
     9    7   17 am
    10    7   19 2
    11    8   13 1
    12    8   18 am
    13    8   20 2
    14    9   15 1
    15   10   15 1
    16   11   12 1
    17   11   14 1
    18   12   22 1
    19   13   14 1
    20   13   21 1
    21   14   16 1
    22   15   22 1
    23   17   18 1
    24    1   24 1
    25    2   25 1
    26    3   26 1
    27    4   27 1
    28    9   28 1
    29    9   29 1
    30    9   30 1
    31   10   31 1
    32   10   32 1
    33   10   33 1
    34   11   34 1
    35   11   35 1
    36   12   36 1
    37   12   37 1
    38   13   38 1
    39   14   39 1
    40   15   40 1
    41   16   41 1
    42   16   42 1
    43   17   43 1
    44   18   44 1
    45   21   45 1
@<TRIPOS>MOLECULE
LIGAND
   45    45     0     0     0
SMALL
NO_CHARGES

@<TRIPOS>ATOM
      1 C1          1.2491   -0.2643    9.4993 C.ar      1 <0>         0.0000
      2 C2          1.4776    0.1988    8.2036 C.ar      1 <0>         0.0000
      3 C3          1.1939   -1.6354    9.7503 C.ar      1 <0>         0.0000
      4 C4          1.5955   -2.0801    7.4098 C.ar      1 <0>         0.0000
      5 C5          1.6507   -0.7090    7.1588 C.ar      1 <0>         0.0000
      6 C6          1.3670   -2.5432    8.7056 C.ar      1 <0>         0.0000
      7 C7          1.8934   -0.2148    5.7787 C.2       1 <0>         0.0000
      8 C8          1.9325   -1.0133    2.6768 C.2       1 <0>         0.0000
      9 C9         -2.8396    0.6809   -2.6742 C.3       1 <0>         0.0000
     10 C10        -4.6560   -0.1960   -1.1670 C.3       1 <0>         0.0000
     11 C11         0.2195    0.8307    0.9188 C.3       1 <0>         0.0000
     12 C12        -1.0001    1.1700    0.0549 C.3       1 <0>         0.0000
     13 C13         2.3649   -0.5352    1.2935 C.3       1 <0>         0.0000
     14 C14         1.1534   -0.2750    0.3710 C.3       1 <0>         0.0000
     15 C15        -3.3416    0.5718   -1.2395 C.3       1 <0>         0.0000
     16 N1          1.6681    0.0834   -0.9557 N.3       1 <0>         0.0000
     17 N2          2.6023   -1.0670    4.9540 N.am      1 <0>         0.0000
     18 N3          2.8469   -0.6810    3.6590 N.am      1 <0>         0.0000
     19 O1          1.4534    0.8829    5.4461 O.2       1 <0>         0.0000
     20 O2          0.8915   -1.6405    2.8632 O.2       1 <0>         0.0000
     21 O3          3.2186   -1.5159    0.7230 O.3       1 <0>         0.0000
     22 S1         -2.0977   -0.2515   -0.2193 S.3       1 <0>         0.0000
     23 Cl1         1.2993   -4.2348    9.0161 Cl        1 <0>         0.0000
     24 H1          1.1146    0.4426   10.3126 H         1 <0>         0.0000
     25 H2          1.5183    1.2695    8.0204 H         1 <0>         0.0000
     26 H3          1.0151   -1.9815   10.7651 H         1 <0>         0.0000
     27 H4          1.7315   -2.7860    6.5930 H         1 <0>         0.0000
     28 H5         -2.6847   -0.3167   -3.1002 H         1 <0>         0.0000
     29 H6         -3.5648    1.1984   -3.3121 H         1 <0>         0.0000
     30 H7         -1.8850    1.2160   -2.7338 H         1 <0>         0.0000
     31 H8         -4.5291   -1.2071   -1.5698 H         1 <0>         0.0000
     32 H9         -5.4375    0.2943   -1.7580 H         1 <0>         0.0000
     33 H10        -5.0153   -0.2952   -0.1363 H         1 <0>         0.0000
     34 H11        -0.1531    0.5335    1.9082 H         1 <0>         0.0000
     35 H12         0.7975    1.7493    1.0822 H         1 <0>         0.0000
     36 H13        -0.6573    1.5138   -0.9268 H         1 <0>         0.0000
     37 H14        -1.5832    1.9849    0.4933 H         1 <0>         0.0000
     38 H15         2.9484    0.3859    1.4229 H         1 <0>         0.0000
     39 H16         0.5915   -1.2082    0.2610 H         1 <0>         0.0000
     40 H17        -3.4899    1.5778   -0.8328 H         1 <0>         0.0000
     41 H18         0.8845    0.1717   -1.5934 H         1 <0>         0.0000
     42 H19         2.2416   -0.6802   -1.2969 H         1 <0>         0.0000
     43 H20         2.9356   -1.9607    5.2985 H         1 <0>         0.0000
     44 H21         3.6858   -0.1599    3.4266 H         1 <0>         0.0000
     45 H22         2.7041   -2.3378    0.6655 H         1 <0>         0.0000
@<TRIPOS>BOND
     1    1    2 ar
     2    1    3 ar
     3    2    5 ar
     4    3    6 ar
     5    4    5 ar
     6    4    6 ar
     7    5    7 1
     8    6   23 1
     9    7   17 am
    10    7   19 2
    11    8   13 1
    12    8   18 am
    13    8   20 2
    14    9   15 1
    15   10   15 1
    16   11   12 1
    17   11   14 1
    18   12   22 1
    19   13   14 1
    20   13   21 1
    21   14   16 1
    22   15   22 1
    23   17   18 1
    24    1   24 1
    25    2   25 1
    26    3   26 1
    27    4   27 1
    28    9   28 1
    29    9   29 1
    30    9   30 1
    31   10   31 1
    32   10   32 1
    33   10   33 1
    34   11   34 1
    35   11   35 1
    36   12   36 1
    37   12   37 1
    38   13   38 1
    39   14   39 1
    40   15   40 1
    41   16   41 1
    42   16   42 1
    43   17   43 1
    44   18   44 1
    45   21   45 1
@<TRIPOS>MOLECULE
LIGAND
   45    45     0     0     0
SMALL
NO_CHARGES

@<TRIPOS>ATOM
      1 C1          0.7616   -0.9565    8.9701 C.ar      1 <0>         0.0000
      2 C2          1.1113   -0.5972    7.6686 C.ar      1 <0>         0.0000
      3 C3         -0.3809   -0.4156    9.5599 C.ar      1 <0>         0.0000
      4 C4         -0.8238    0.8441    7.5465 C.ar      1 <0>         0.0000
      5 C5          0.3186    0.3032    6.9567 C.ar      1 <0>         0.0000
      6 C6         -1.1736    0.4847    8.8481 C.ar      1 <0>         0.0000
      7 C7          0.6923    0.6859    5.5704 C.2       1 <0>         0.0000
      8 C8          1.9325   -1.0133    2.6768 C.2       1 <0>         0.0000
      9 C9         -3.5953   -0.8020   -2.4330 C.3       1 <0>         0.0000
     10 C10        -4.0047    1.3935   -1.2699 C.3       1 <0>         0.0000
     11 C11         0.2195    0.8307    0.9188 C.3       1 <0>         0.0000
     12 C12        -1.0001    1.1700    0.0549 C.3       1 <0>         0.0000
     13 C13         2.3649   -0.5352    1.2935 C.3       1 <0>         0.0000
     14 C14         1.1534   -0.2750    0.3710 C.3       1 <0>         0.0000
     15 C15        -2.9606    0.3632   -1.6834 C.3       1 <0>         0.0000
     16 N1          1.6681    0.0834   -0.9557 N.3       1 <0>         0.0000
     17 N2          1.4238   -0.2520    4.8674 N.am      1 <0>         0.0000
     18 N3          1.7877    0.0290    3.5734 N.am      1 <0>         0.0000
     19 O1          0.3313    1.7736    5.1279 O.2       1 <0>         0.0000
     20 O2          1.7602   -2.2018    2.9407 O.2       1 <0>         0.0000
     21 O3          3.2186   -1.5159    0.7230 O.3       1 <0>         0.0000
     22 S1         -2.0977   -0.2515   -0.2193 S.3       1 <0>         0.0000
     23 Cl1        -2.5835    1.1514    9.5763 Cl        1 <0>         0.0000
     24 H1          1.3787   -1.6577    9.5240 H         1 <0>         0.0000
     25 H2          2.0040   -1.0253    7.2198 H         1 <0>         0.0000
     26 H3         -0.6409   -0.7049   10.5749 H         1 <0>         0.0000
     27 H4         -1.4407    1.5458    6.9886 H         1 <0>         0.0000
     28 H5         -4.3436   -1.2969   -1.8040 H         1 <0>         0.0000
     29 H6         -4.1065   -0.4613   -3.3404 H         1 <0>         0.0000
     30 H7         -2.8540   -1.5571   -2.7183 H         1 <0>         0.0000
     31 H8         -4.7593    0.9323   -0.6229 H         1 <0>         0.0000
     32 H9         -4.5284    1.8023   -2.1412 H         1 <0>         0.0000
     33 H10        -3.5593    2.2264   -0.7139 H         1 <0>         0.0000
     34 H11        -0.1531    0.5335    1.9082 H         1 <0>         0.0000
     35 H12         0.7975    1.7493    1.0822 H         1 <0>         0.0000
     36 H13        -0.6573    1.5138   -0.9268 H         1 <0>         0.0000
     37 H14        -1.5832    1.9849    0.4933 H         1 <0>         0.0000
     38 H15         2.9484    0.3859    1.4229 H         1 <0>         0.0000
     39 H16         0.5915   -1.2082    0.2610 H         1 <0>         0.0000
     40 H17        -2.2171    0.8435   -2.3283 H         1 <0>         0.0000
     41 H18         0.8845    0.1717   -1.5934 H         1 <0>         0.0000
     42 H19         2.2416   -0.6802   -1.2969 H         1 <0>         0.0000
     43 H20         1.6871   -1.1312    5.2989 H         1 <0>         0.0000
     44 H21         1.9478    0.9869    3.2798 H         1 <0>         0.0000
     45 H22         2.7041   -2.3378    0.6655 H         1 <0>         0.0000
@<TRIPOS>BOND
     1    1    2 ar
     2    1    3 ar
     3    2    5 ar
     4    3    6 ar
     5    4    5 ar
     6    4    6 ar
     7    5    7 1
     8    6   23 1
     9    7   17 am
    10    7   19 2
    11    8   13 1
    12    8   18 am
    13    8   20 2
    14    9   15 1
    15   10   15 1
    16   11   12 1
    17   11   14 1
    18   12   22 1
    19   13   14 1
    20   13   21 1
    21   14   16 1
    22   15   22 1
    23   17   18 1
    24    1   24 1
    25    2   25 1
    26    3   26 1
    27    4   27 1
    28    9   28 1
    29    9   29 1
    30    9   30 1
    31   10   31 1
    32   10   32 1
    33   10   33 1
    34   11   34 1
    35   11   35 1
    36   12   36 1
    37   12   37 1
    38   13   38 1
    39   14   39 1
    40   15   40 1
    41   16   41 1
    42   16   42 1
    43   17   43 1
    44   18   44 1
    45   21   45 1
@<TRIPOS>MOLECULE
LIGAND
   45    45     0     0     0
SMALL
NO_CHARGES

@<TRIPOS>ATOM
      1 C1          2.3084   -2.0825    9.0344 C.ar      1 <0>         0.0000
      2 C2          2.5351   -1.6185    7.7387 C.ar      1 <0>         0.0000
      3 C3          1.1971   -1.6371    9.7503 C.ar      1 <0>         0.0000
      4 C4          0.5395   -0.2636    7.8747 C.ar      1 <0>         0.0000
      5 C5          1.6507   -0.7090    7.1588 C.ar      1 <0>         0.0000
      6 C6          0.3127   -0.7276    9.1704 C.ar      1 <0>         0.0000
      7 C7          1.8934   -0.2148    5.7787 C.2       1 <0>         0.0000
      8 C8          1.9325   -1.0133    2.6768 C.2       1 <0>         0.0000
      9 C9         -2.8396    0.6809   -2.6742 C.3       1 <0>         0.0000
     10 C10        -4.6560   -0.1960   -1.1670 C.3       1 <0>         0.0000
     11 C11         0.2195    0.8307    0.9188 C.3       1 <0>         0.0000
     12 C12        -1.0001    1.1700    0.0549 C.3       1 <0>         0.0000
     13 C13         2.3649   -0.5352    1.2935 C.3       1 <0>         0.0000
     14 C14         1.1534   -0.2750    0.3710 C.3       1 <0>         0.0000
     15 C15        -3.3416    0.5718   -1.2395 C.3       1 <0>         0.0000
     16 N1          1.6681    0.0834   -0.9557 N.3       1 <0>         0.0000
     17 N2          2.6023   -1.0670    4.9540 N.am      1 <0>         0.0000
     18 N3          2.8469   -0.6810    3.6590 N.am      1 <0>         0.0000
     19 O1          1.4534    0.8829    5.4461 O.2       1 <0>         0.0000
     20 O2          0.8915   -1.6405    2.8632 O.2       1 <0>         0.0000
     21 O3          3.2186   -1.5159    0.7230 O.3       1 <0>         0.0000
     22 S1         -2.0977   -0.2515   -0.2193 S.3       1 <0>         0.0000
     23 Cl1        -1.0586   -0.1788   10.0541 Cl        1 <0>         0.0000
     24 H1          2.9969   -2.7909    9.4856 H         1 <0>         0.0000
     25 H2          3.4046   -1.9729    7.1910 H         1 <0>         0.0000
     26 H3          1.0333   -2.0074   10.7590 H         1 <0>         0.0000
     27 H4         -0.1491    0.4455    7.4196 H         1 <0>         0.0000
     28 H5         -2.6847   -0.3167   -3.1002 H         1 <0>         0.0000
     29 H6         -3.5648    1.1984   -3.3121 H         1 <0>         0.0000
     30 H7         -1.8850    1.2160   -2.7338 H         1 <0>         0.0000
     31 H8         -4.5291   -1.2071   -1.5698 H         1 <0>         0.0000
     32 H9         -5.4375    0.2943   -1.7580 H         1 <0>         0.0000
     33 H10        -5.0153   -0.2952   -0.1363 H         1 <0>         0.0000
     34 H11        -0.1531    0.5335    1.9082 H         1 <0>         0.0000
     35 H12         0.7975    1.7493    1.0822 H         1 <0>         0.0000
     36 H13        -0.6573    1.5138   -0.9268 H         1 <0>         0.0000
     37 H14        -1.5832    1.9849    0.4933 H         1 <0>         0.0000
     38 H15         2.9484    0.3859    1.4229 H         1 <0>         0.0000
     39 H16         0.5915   -1.2082    0.2610 H         1 <0>         0.0000
     40 H17        -3.4899    1.5778   -0.8328 H         1 <0>         0.0000
     41 H18         0.8845    0.1717   -1.5934 H         1 <0>         0.0000
     42 H19         2.2416   -0.6802   -1.2969 H         1 <0>         0.0000
     43 H20         2.9356   -1.9607    5.2985 H         1 <0>         0.0000
     44 H21         3.6858   -0.1599    3.4266 H         1 <0>         0.0000
     45 H22         2.7041   -2.3378    0.6655 H         1 <0>         0.0000
@<TRIPOS>BOND
     1    1    2 ar
     2    1    3 ar
     3    2    5 ar
     4    3    6 ar
     5    4    5 ar
     6    4    6 ar
     7    5    7 1
     8    6   23 1
     9    7   17 am
    10    7   19 2
    11    8   13 1
    12    8   18 am
    13    8   20 2
    14    9   15 1
    15   10   15 1
    16   11   12 1
    17   11   14 1
    18   12   22 1
    19   13   14 1
    20   13   21 1
    21   14   16 1
    22   15   22 1
    23   17   18 1
    24    1   24 1
    25    2   25 1
    26    3   26 1
    27    4   27 1
    28    9   28 1
    29    9   29 1
    30    9   30 1
    31   10   31 1
    32   10   32 1
    33   10   33 1
    34   11   34 1
    35   11   35 1
    36   12   36 1
    37   12   37 1
    38   13   38 1
    39   14   39 1
    40   15   40 1
    41   16   41 1
    42   16   42 1
    43   17   43 1
    44   18   44 1
    45   21   45 1
@<TRIPOS>MOLECULE
LIGAND
   45    45     0     0     0
SMALL
NO_CHARGES

@<TRIPOS>ATOM
      1 C1         -0.8568   -0.8437    8.7635 C.ar      1 <0>         0.0000
      2 C2         -0.6134   -0.4635    7.4437 C.ar      1 <0>         0.0000
      3 C3          0.2081   -1.1727    9.6022 C.ar      1 <0>         0.0000
      4 C4          1.7598   -0.7415    7.8013 C.ar      1 <0>         0.0000
      5 C5          0.6949   -0.4125    6.9626 C.ar      1 <0>         0.0000
      6 C6          1.5164   -1.1216    9.1211 C.ar      1 <0>         0.0000
      7 C7          0.9532   -0.0081    5.5563 C.2       1 <0>         0.0000
      8 C8          1.9325   -1.0133    2.6768 C.2       1 <0>         0.0000
      9 C9          0.0309    6.1524    1.8816 C.3       1 <0>         0.0000
     10 C10         1.7102    4.7140    3.0862 C.3       1 <0>         0.0000
     11 C11         0.2195    0.8307    0.9188 C.3       1 <0>         0.0000
     12 C12         0.8590    2.2074    1.1305 C.3       1 <0>         0.0000
     13 C13         2.3649   -0.5352    1.2935 C.3       1 <0>         0.0000
     14 C14         1.1534   -0.2750    0.3710 C.3       1 <0>         0.0000
     15 C15         0.8241    4.8515    1.8540 C.3       1 <0>         0.0000
     16 N1          1.6681    0.0834   -0.9557 N.3       1 <0>         0.0000
     17 N2          2.1084   -0.5131    4.9911 N.am      1 <0>         0.0000
     18 N3          2.3999   -0.1941    3.6876 N.am      1 <0>         0.0000
     19 O1          0.1465    0.7178    4.9806 O.2       1 <0>         0.0000
     20 O2          1.2610   -2.0296    2.8442 O.2       1 <0>         0.0000
     21 O3          3.2186   -1.5159    0.7230 O.3       1 <0>         0.0000
     22 S1         -0.3102    3.4478    1.7590 S.3       1 <0>         0.0000
     23 Cl1         2.8299   -1.5272   10.1568 Cl        1 <0>         0.0000
     24 H1         -1.8754   -0.8830    9.1379 H         1 <0>         0.0000
     25 H2         -1.4514   -0.2096    6.7997 H         1 <0>         0.0000
     26 H3          0.0031   -1.4671   10.6283 H         1 <0>         0.0000
     27 H4          2.7794   -0.7003    7.4234 H         1 <0>         0.0000
     28 H5         -0.6040    6.1923    2.7738 H         1 <0>         0.0000
     29 H6          0.6947    7.0236    1.9150 H         1 <0>         0.0000
     30 H7         -0.6232    6.2512    1.0077 H         1 <0>         0.0000
     31 H8          1.1011    4.7317    3.9969 H         1 <0>         0.0000
     32 H9          2.4261    5.5404    3.1569 H         1 <0>         0.0000
     33 H10         2.2708    3.7722    3.0836 H         1 <0>         0.0000
     34 H11        -0.6259    0.9652    0.2307 H         1 <0>         0.0000
     35 H12        -0.2197    0.5004    1.8688 H         1 <0>         0.0000
     36 H13         1.2423    2.5738    0.1722 H         1 <0>         0.0000
     37 H14         1.7108    2.1489    1.8142 H         1 <0>         0.0000
     38 H15         2.9484    0.3859    1.4229 H         1 <0>         0.0000
     39 H16         0.5915   -1.2082    0.2610 H         1 <0>         0.0000
     40 H17         1.4510    4.8315    0.9561 H         1 <0>         0.0000
     41 H18         0.8845    0.1717   -1.5934 H         1 <0>         0.0000
     42 H19         2.2416   -0.6802   -1.2969 H         1 <0>         0.0000
     43 H20         2.7293   -1.1081    5.5287 H         1 <0>         0.0000
     44 H21         2.9499    0.6302    3.4697 H         1 <0>         0.0000
     45 H22         2.7041   -2.3378    0.6655 H         1 <0>         0.0000
@<TRIPOS>BOND
     1    1    2 ar
     2    1    3 ar
     3    2    5 ar
     4    3    6 ar
     5    4    5 ar
     6    4    6 ar
     7    5    7 1
     8    6   23 1
     9    7   17 am
    10    7   19 2
    11    8   13 1
    12    8   18 am
    13    8   20 2
    14    9   15 1
    15   10   15 1
    16   11   12 1
    17   11   14 1
    18   12   22 1
    19   13   14 1
    20   13   21 1
    21   14   16 1
    22   15   22 1
    23   17   18 1
    24    1   24 1
    25    2   25 1
    26    3   26 1
    27    4   27 1
    28    9   28 1
    29    9   29 1
    30    9   30 1
    31   10   31 1
    32   10   32 1
    33   10   33 1
    34   11   34 1
    35   11   35 1
    36   12   36 1
    37   12   37 1
    38   13   38 1
    39   14   39 1
    40   15   40 1
    41   16   41 1
    42   16   42 1
    43   17   43 1
    44   18   44 1
    45   21   45 1
@<TRIPOS>MOLECULE
LIGAND
   45    45     0     0     0
SMALL
NO_CHARGES

@<TRIPOS>ATOM
      1 C1         -0.1690   -1.4033    8.5959 C.ar      1 <0>         0.0000
      2 C2          0.1811   -1.0431    7.2947 C.ar      1 <0>         0.0000
      3 C3         -0.3818   -0.4171    9.5593 C.ar      1 <0>         0.0000
      4 C4          0.1059    1.2894    7.9200 C.ar      1 <0>         0.0000
      5 C5          0.3186    0.3032    6.9567 C.ar      1 <0>         0.0000
      6 C6         -0.2443    0.9292    9.2213 C.ar      1 <0>         0.0000
      7 C7          0.6923    0.6859    5.5704 C.2       1 <0>         0.0000
      8 C8          1.9325   -1.0133    2.6768 C.2       1 <0>         0.0000
      9 C9         -4.2967    1.3927   -0.3375 C.3       1 <0>         0.0000
     10 C10        -4.0071    3.8901   -0.4781 C.3       1 <0>         0.0000
     11 C11         0.2195    0.8307    0.9188 C.3       1 <0>         0.0000
     12 C12        -1.0001    1.1700    0.0549 C.3       1 <0>         0.0000
     13 C13         2.3649   -0.5352    1.2935 C.3       1 <0>         0.0000
     14 C14         1.1534   -0.2750    0.3710 C.3       1 <0>         0.0000
     15 C15        -3.3066    2.5373   -0.5169 C.3       1 <0>         0.0000
     16 N1          1.6681    0.0834   -0.9557 N.3       1 <0>         0.0000
     17 N2          1.4238   -0.2520    4.8674 N.am      1 <0>         0.0000
     18 N3          1.7877    0.0290    3.5734 N.am      1 <0>         0.0000
     19 O1          0.3313    1.7736    5.1279 O.2       1 <0>         0.0000
     20 O2          1.7602   -2.2018    2.9407 O.2       1 <0>         0.0000
     21 O3          3.2186   -1.5159    0.7230 O.3       1 <0>         0.0000
     22 S1         -2.0492    2.4644    0.7791 S.3       1 <0>         0.0000
     23 Cl1        -0.5074    2.1455   10.4103 Cl        1 <0>         0.0000
     24 H1         -0.2763   -2.4515    8.8588 H         1 <0>         0.0000
     25 H2          0.3444   -1.8206    6.5528 H         1 <0>         0.0000
     26 H3         -0.6541   -0.7128   10.5691 H         1 <0>         0.0000
     27 H4          0.2134    2.3388    7.6534 H         1 <0>         0.0000
     28 H5         -4.8186    1.4878    0.6213 H         1 <0>         0.0000
     29 H6         -5.0586    1.3975   -1.1249 H         1 <0>         0.0000
     30 H7         -3.7990    0.4164   -0.3457 H         1 <0>         0.0000
     31 H8         -4.5245    4.0235    0.4785 H         1 <0>         0.0000
     32 H9         -4.7599    3.9723   -1.2700 H         1 <0>         0.0000
     33 H10        -3.2998    4.7201   -0.5881 H         1 <0>         0.0000
     34 H11        -0.1531    0.5335    1.9082 H         1 <0>         0.0000
     35 H12         0.7975    1.7493    1.0822 H         1 <0>         0.0000
     36 H13        -1.6176    0.2727   -0.0585 H         1 <0>         0.0000
     37 H14        -0.7009    1.4813   -0.9501 H         1 <0>         0.0000
     38 H15         2.9484    0.3859    1.4229 H         1 <0>         0.0000
     39 H16         0.5915   -1.2082    0.2610 H         1 <0>         0.0000
     40 H17        -2.7965    2.4239   -1.4795 H         1 <0>         0.0000
     41 H18         0.8845    0.1717   -1.5934 H         1 <0>         0.0000
     42 H19         2.2416   -0.6802   -1.2969 H         1 <0>         0.0000
     43 H20         1.6871   -1.1312    5.2989 H         1 <0>         0.0000
     44 H21         1.9478    0.9869    3.2798 H         1 <0>         0.0000
     45 H22         2.7041   -2.3378    0.6655 H         1 <0>         0.0000
@<TRIPOS>BOND
     1    1    2 ar
     2    1    3 ar
     3    2    5 ar
     4    3    6 ar
     5    4    5 ar
     6    4    6 ar
     7    5    7 1
     8    6   23 1
     9    7   17 am
    10    7   19 2
    11    8   13 1
    12    8   18 am
    13    8   20 2
    14    9   15 1
    15   10   15 1
    16   11   12 1
    17   11   14 1
    18   12   22 1
    19   13   14 1
    20   13   21 1
    21   14   16 1
    22   15   22 1
    23   17   18 1
    24    1   24 1
    25    2   25 1
    26    3   26 1
    27    4   27 1
    28    9   28 1
    29    9   29 1
    30    9   30 1
    31   10   31 1
    32   10   32 1
    33   10   33 1
    34   11   34 1
    35   11   35 1
    36   12   36 1
    37   12   37 1
    38   13   38 1
    39   14   39 1
    40   15   40 1
    41   16   41 1
    42   16   42 1
    43   17   43 1
    44   18   44 1
    45   21   45 1
@<TRIPOS>MOLECULE
LIGAND
   45    45     0     0     0
SMALL
NO_CHARGES

@<TRIPOS>ATOM
      1 C1          2.2466   -2.5526    8.8826 C.ar      1 <0>         0.0000
      2 C2          2.5475   -2.1101    7.5945 C.ar      1 <0>         0.0000
      3 C3          2.1624   -1.6379    9.9324 C.ar      1 <0>         0.0000
      4 C4          2.6802    0.1617    8.4058 C.ar      1 <0>         0.0000
      5 C5          2.7643   -0.7530    7.3561 C.ar      1 <0>         0.0000
      6 C6          2.3792   -0.2808    9.6940 C.ar      1 <0>         0.0000
      7 C7          3.0854   -0.2826    5.9837 C.2       1 <0>         0.0000
      8 C8          1.9325   -1.0133    2.6768 C.2       1 <0>         0.0000
      9 C9         -4.0623    0.8550    1.3177 C.3       1 <0>         0.0000
     10 C10        -3.5584   -1.5885    1.6583 C.3       1 <0>         0.0000
     11 C11         0.2195    0.8307    0.9188 C.3       1 <0>         0.0000
     12 C12        -1.0001    1.1700    0.0549 C.3       1 <0>         0.0000
     13 C13         2.3649   -0.5352    1.2935 C.3       1 <0>         0.0000
     14 C14         1.1534   -0.2750    0.3710 C.3       1 <0>         0.0000
     15 C15        -2.9754   -0.2124    1.3599 C.3       1 <0>         0.0000
     16 N1          1.6681    0.0834   -0.9557 N.3       1 <0>         0.0000
     17 N2          2.6023   -1.0670    4.9540 N.am      1 <0>         0.0000
     18 N3          2.8469   -0.6810    3.6590 N.am      1 <0>         0.0000
     19 O1          3.7293    0.7533    5.8374 O.2       1 <0>         0.0000
     20 O2          0.8915   -1.6405    2.8632 O.2       1 <0>         0.0000
     21 O3          3.2186   -1.5159    0.7230 O.3       1 <0>         0.0000
     22 S1         -2.0977   -0.2515   -0.2193 S.3       1 <0>         0.0000
     23 Cl1         2.2747    0.8474   10.9897 Cl        1 <0>         0.0000
     24 H1          2.0776   -3.6092    9.0680 H         1 <0>         0.0000
     25 H2          2.6105   -2.8325    6.7847 H         1 <0>         0.0000
     26 H3          1.9271   -1.9973   10.9308 H         1 <0>         0.0000
     27 H4          2.8492    1.2199    8.2168 H         1 <0>         0.0000
     28 H5         -4.8019    0.6148    0.5457 H         1 <0>         0.0000
     29 H6         -4.5966    0.9180    2.2722 H         1 <0>         0.0000
     30 H7         -3.6542    1.8453    1.0855 H         1 <0>         0.0000
     31 H8         -4.2902   -1.8663    0.8915 H         1 <0>         0.0000
     32 H9         -4.0769   -1.6012    2.6234 H         1 <0>         0.0000
     33 H10        -2.7856   -2.3656    1.6725 H         1 <0>         0.0000
     34 H11        -0.1531    0.5335    1.9082 H         1 <0>         0.0000
     35 H12         0.7975    1.7493    1.0822 H         1 <0>         0.0000
     36 H13        -0.6573    1.5138   -0.9268 H         1 <0>         0.0000
     37 H14        -1.5832    1.9849    0.4933 H         1 <0>         0.0000
     38 H15         2.9484    0.3859    1.4229 H         1 <0>         0.0000
     39 H16         0.5915   -1.2082    0.2610 H         1 <0>         0.0000
     40 H17        -2.2476    0.0460    2.1366 H         1 <0>         0.0000
     41 H18         0.8845    0.1717   -1.5934 H         1 <0>         0.0000
     42 H19         2.2416   -0.6802   -1.2969 H         1 <0>         0.0000
     43 H20         2.0769   -1.9119    5.1509 H         1 <0>         0.0000
     44 H21         3.6858   -0.1599    3.4266 H         1 <0>         0.0000
     45 H22         2.7041   -2.3378    0.6655 H         1 <0>         0.0000
@<TRIPOS>BOND
     1    1    2 ar
     2    1    3 ar
     3    2    5 ar
     4    3    6 ar
     5    4    5 ar
     6    4    6 ar
     7    5    7 1
     8    6   23 1
     9    7   17 am
    10    7   19 2
    11    8   13 1
    12    8   18 am
    13    8   20 2
    14    9   15 1
    15   10   15 1
    16   11   12 1
    17   11   14 1
    18   12   22 1
    19   13   14 1
    20   13   21 1
    21   14   16 1
    22   15   22 1
    23   17   18 1
    24    1   24 1
    25    2   25 1
    26    3   26 1
    27    4   27 1
    28    9   28 1
    29    9   29 1
    30    9   30 1
    31   10   31 1
    32   10   32 1
    33   10   33 1
    34   11   34 1
    35   11   35 1
    36   12   36 1
    37   12   37 1
    38   13   38 1
    39   14   39 1
    40   15   40 1
    41   16   41 1
    42   16   42 1
    43   17   43 1
    44   18   44 1
    45   21   45 1
@<TRIPOS>MOLECULE
LIGAND
   45    45     0     0     0
SMALL
NO_CHARGES

@<TRIPOS>ATOM
      1 C1         -1.7183   -0.4637    8.5029 C.ar      1 <0>         0.0000
      2 C2         -1.4200   -0.1538    7.1760 C.ar      1 <0>         0.0000
      3 C3         -0.8331   -1.2363    9.2547 C.ar      1 <0>         0.0000
      4 C4          0.6487   -1.3893    7.3526 C.ar      1 <0>         0.0000
      5 C5         -0.2366   -0.6167    6.6009 C.ar      1 <0>         0.0000
      6 C6          0.3503   -1.6991    8.6795 C.ar      1 <0>         0.0000
      7 C7          0.0801   -0.2867    5.1871 C.2       1 <0>         0.0000
      8 C8          1.9325   -1.0133    2.6768 C.2       1 <0>         0.0000
      9 C9         -4.2967    1.3927   -0.3375 C.3       1 <0>         0.0000
     10 C10        -4.0071    3.8901   -0.4781 C.3       1 <0>         0.0000
     11 C11         0.2195    0.8307    0.9188 C.3       1 <0>         0.0000
     12 C12        -1.0001    1.1700    0.0549 C.3       1 <0>         0.0000
     13 C13         2.3649   -0.5352    1.2935 C.3       1 <0>         0.0000
     14 C14         1.1534   -0.2750    0.3710 C.3       1 <0>         0.0000
     15 C15        -3.3066    2.5373   -0.5169 C.3       1 <0>         0.0000
     16 N1          1.6681    0.0834   -0.9557 N.3       1 <0>         0.0000
     17 N2          1.4238   -0.2520    4.8674 N.am      1 <0>         0.0000
     18 N3          1.7877    0.0290    3.5734 N.am      1 <0>         0.0000
     19 O1         -0.8375   -0.0833    4.3961 O.2       1 <0>         0.0000
     20 O2          1.7602   -2.2018    2.9407 O.2       1 <0>         0.0000
     21 O3          3.2186   -1.5159    0.7230 O.3       1 <0>         0.0000
     22 S1         -2.0492    2.4644    0.7791 S.3       1 <0>         0.0000
     23 Cl1         1.4424   -2.6521    9.6079 Cl        1 <0>         0.0000
     24 H1         -2.6397   -0.1029    8.9506 H         1 <0>         0.0000
     25 H2         -2.1177    0.4490    6.6003 H         1 <0>         0.0000
     26 H3         -1.0790   -1.4697   10.2874 H         1 <0>         0.0000
     27 H4          1.5714   -1.7486    6.9015 H         1 <0>         0.0000
     28 H5         -4.8186    1.4878    0.6213 H         1 <0>         0.0000
     29 H6         -5.0586    1.3975   -1.1249 H         1 <0>         0.0000
     30 H7         -3.7990    0.4164   -0.3457 H         1 <0>         0.0000
     31 H8         -4.5245    4.0235    0.4785 H         1 <0>         0.0000
     32 H9         -4.7599    3.9723   -1.2700 H         1 <0>         0.0000
     33 H10        -3.2998    4.7201   -0.5881 H         1 <0>         0.0000
     34 H11        -0.1531    0.5335    1.9082 H         1 <0>         0.0000
     35 H12         0.7975    1.7493    1.0822 H         1 <0>         0.0000
     36 H13        -1.6176    0.2727   -0.0585 H         1 <0>         0.0000
     37 H14        -0.7009    1.4813   -0.9501 H         1 <0>         0.0000
     38 H15         2.9484    0.3859    1.4229 H         1 <0>         0.0000
     39 H16         0.5915   -1.2082    0.2610 H         1 <0>         0.0000
     40 H17        -2.7965    2.4239   -1.4795 H         1 <0>         0.0000
     41 H18         0.8845    0.1717   -1.5934 H         1 <0>         0.0000
     42 H19         2.2416   -0.6802   -1.2969 H         1 <0>         0.0000
     43 H20         2.1281   -0.4306    5.5750 H         1 <0>         0.0000
     44 H21         1.9478    0.9869    3.2798 H         1 <0>         0.0000
     45 H22         2.7041   -2.3378    0.6655 H         1 <0>         0.0000
@<TRIPOS>BOND
     1    1    2 ar
     2    1    3 ar
     3    2    5 ar
     4    3    6 ar
     5    4    5 ar
     6    4    6 ar
     7    5    7 1
     8    6   23 1
     9    7   17 am
    10    7   19 2
    11    8   13 1
    12    8   18 am
    13    8   20 2
    14    9   15 1
    15   10   15 1
    16   11   12 1
    17   11   14 1
    18   12   22 1
    19   13   14 1
    20   13   21 1
    21   14   16 1
    22   15   22 1
    23   17   18 1
    24    1   24 1
    25    2   25 1
    26    3   26 1
    27    4   27 1
    28    9   28 1
    29    9   29 1
    30    9   30 1
    31   10   31 1
    32   10   32 1
    33   10   33 1
    34   11   34 1
    35   11   35 1
    36   12   36 1
    37   12   37 1
    38   13   38 1
    39   14   39 1
    40   15   40 1
    41   16   41 1
    42   16   42 1
    43   17   43 1
    44   18   44 1
    45   21   45 1
@<TRIPOS>MOLECULE
LIGAND
   45    45     0     0     0
SMALL
NO_CHARGES

@<TRIPOS>ATOM
      1 C1         -0.3007    0.0342    9.1181 C.ar      1 <0>         0.0000
      2 C2         -0.0572    0.4134    7.7980 C.ar      1 <0>         0.0000
      3 C3          0.2080   -1.1709    9.6027 C.ar      1 <0>         0.0000
      4 C4          1.2035   -1.6176    7.4472 C.ar      1 <0>         0.0000
      5 C5          0.6949   -0.4125    6.9626 C.ar      1 <0>         0.0000
      6 C6          0.9601   -1.9967    8.7673 C.ar      1 <0>         0.0000
      7 C7          0.9532   -0.0081    5.5563 C.2       1 <0>         0.0000
      8 C8          1.9325   -1.0133    2.6768 C.2       1 <0>         0.0000
      9 C9         -2.8396    0.6809   -2.6742 C.3       1 <0>         0.0000
     10 C10        -4.6560   -0.1960   -1.1670 C.3       1 <0>         0.0000
     11 C11         0.2195    0.8307    0.9188 C.3       1 <0>         0.0000
     12 C12        -1.0001    1.1700    0.0549 C.3       1 <0>         0.0000
     13 C13         2.3649   -0.5352    1.2935 C.3       1 <0>         0.0000
     14 C14         1.1534   -0.2750    0.3710 C.3       1 <0>         0.0000
     15 C15        -3.3416    0.5718   -1.2395 C.3       1 <0>         0.0000
     16 N1          1.6681    0.0834   -0.9557 N.3       1 <0>         0.0000
     17 N2          2.1084   -0.5131    4.9911 N.am      1 <0>         0.0000
     18 N3          2.3999   -0.1941    3.6876 N.am      1 <0>         0.0000
     19 O1          0.1465    0.7178    4.9806 O.2       1 <0>         0.0000
     20 O2          1.2610   -2.0296    2.8442 O.2       1 <0>         0.0000
     21 O3          3.2186   -1.5159    0.7230 O.3       1 <0>         0.0000
     22 S1         -2.0977   -0.2515   -0.2193 S.3       1 <0>         0.0000
     23 Cl1         1.5879   -3.4833    9.3661 Cl        1 <0>         0.0000
     24 H1         -0.8859    0.6775    9.7685 H         1 <0>         0.0000
     25 H2         -0.4589    1.3547    7.4319 H         1 <0>         0.0000
     26 H3          0.0102   -1.4532   10.6336 H         1 <0>         0.0000
     27 H4          1.7904   -2.2596    6.7933 H         1 <0>         0.0000
     28 H5         -2.6847   -0.3167   -3.1002 H         1 <0>         0.0000
     29 H6         -3.5648    1.1984   -3.3121 H         1 <0>         0.0000
     30 H7         -1.8850    1.2160   -2.7338 H         1 <0>         0.0000
     31 H8         -4.5291   -1.2071   -1.5698 H         1 <0>         0.0000
     32 H9         -5.4375    0.2943   -1.7580 H         1 <0>         0.0000
     33 H10        -5.0153   -0.2952   -0.1363 H         1 <0>         0.0000
     34 H11        -0.1531    0.5335    1.9082 H         1 <0>         0.0000
     35 H12         0.7975    1.7493    1.0822 H         1 <0>         0.0000
     36 H13        -0.6573    1.5138   -0.9268 H         1 <0>         0.0000
     37 H14        -1.5832    1.9849    0.4933 H         1 <0>         0.0000
     38 H15         2.9484    0.3859    1.4229 H         1 <0>         0.0000
     39 H16         0.5915   -1.2082    0.2610 H         1 <0>         0.0000
     40 H17        -3.4899    1.5778   -0.8328 H         1 <0>         0.0000
     41 H18         0.8845    0.1717   -1.5934 H         1 <0>         0.0000
     42 H19         2.2416   -0.6802   -1.2969 H         1 <0>         0.0000
     43 H20         2.7293   -1.1081    5.5287 H         1 <0>         0.0000
     44 H21         2.9499    0.6302    3.4697 H         1 <0>         0.0000
     45 H22         2.7041   -2.3378    0.6655 H         1 <0>         0.0000
@<TRIPOS>BOND
     1    1    2 ar
     2    1    3 ar
     3    2    5 ar
     4    3    6 ar
     5    4    5 ar
     6    4    6 ar
     7    5    7 1
     8    6   23 1
     9    7   17 am
    10    7   19 2
    11    8   13 1
    12    8   18 am
    13    8   20 2
    14    9   15 1
    15   10   15 1
    16   11   12 1
    17   11   14 1
    18   12   22 1
    19   13   14 1
    20   13   21 1
    21   14   16 1
    22   15   22 1
    23   17   18 1
    24    1   24 1
    25    2   25 1
    26    3   26 1
    27    4   27 1
    28    9   28 1
    29    9   29 1
    30    9   30 1
    31   10   31 1
    32   10   32 1
    33   10   33 1
    34   11   34 1
    35   11   35 1
    36   12   36 1
    37   12   37 1
    38   13   38 1
    39   14   39 1
    40   15   40 1
    41   16   41 1
    42   16   42 1
    43   17   43 1
    44   18   44 1
    45   21   45 1
@<TRIPOS>MOLECULE
LIGAND
   45    45     0     0     0
SMALL
NO_CHARGES

@<TRIPOS>ATOM
      1 C1          0.3862   -0.6315    8.9351 C.ar      1 <0>         0.0000
      2 C2          0.6829   -0.3226    7.6077 C.ar      1 <0>         0.0000
      3 C3         -0.8301   -1.2346    9.2558 C.ar      1 <0>         0.0000
      4 C4         -1.4528   -1.2197    6.9215 C.ar      1 <0>         0.0000
      5 C5         -0.2366   -0.6167    6.6009 C.ar      1 <0>         0.0000
      6 C6         -1.7496   -1.5286    8.2490 C.ar      1 <0>         0.0000
      7 C7          0.0801   -0.2867    5.1871 C.2       1 <0>         0.0000
      8 C8          1.9325   -1.0133    2.6768 C.2       1 <0>         0.0000
      9 C9         -4.2967    1.3927   -0.3375 C.3       1 <0>         0.0000
     10 C10        -4.0071    3.8901   -0.4781 C.3       1 <0>         0.0000
     11 C11         0.2195    0.8307    0.9188 C.3       1 <0>         0.0000
     12 C12        -1.0001    1.1700    0.0549 C.3       1 <0>         0.0000
     13 C13         2.3649   -0.5352    1.2935 C.3       1 <0>         0.0000
     14 C14         1.1534   -0.2750    0.3710 C.3       1 <0>         0.0000
     15 C15        -3.3066    2.5373   -0.5169 C.3       1 <0>         0.0000
     16 N1          1.6681    0.0834   -0.9557 N.3       1 <0>         0.0000
     17 N2          1.4238   -0.2520    4.8674 N.am      1 <0>         0.0000
     18 N3          1.7877    0.0290    3.5734 N.am      1 <0>         0.0000
     19 O1         -0.8375   -0.0833    4.3961 O.2       1 <0>         0.0000
     20 O2          1.7602   -2.2018    2.9407 O.2       1 <0>         0.0000
     21 O3          3.2186   -1.5159    0.7230 O.3       1 <0>         0.0000
     22 S1         -2.0492    2.4644    0.7791 S.3       1 <0>         0.0000
     23 Cl1        -3.2499   -2.2732    8.6452 Cl        1 <0>         0.0000
     24 H1          1.1023   -0.4028    9.7188 H         1 <0>         0.0000
     25 H2          1.6339    0.1473    7.3703 H         1 <0>         0.0000
     26 H3         -1.0475   -1.4695   10.2945 H         1 <0>         0.0000
     27 H4         -2.1680   -1.4485    6.1339 H         1 <0>         0.0000
     28 H5         -4.8186    1.4878    0.6213 H         1 <0>         0.0000
     29 H6         -5.0586    1.3975   -1.1249 H         1 <0>         0.0000
     30 H7         -3.7990    0.4164   -0.3457 H         1 <0>         0.0000
     31 H8         -4.5245    4.0235    0.4785 H         1 <0>         0.0000
     32 H9         -4.7599    3.9723   -1.2700 H         1 <0>         0.0000
     33 H10        -3.2998    4.7201   -0.5881 H         1 <0>         0.0000
     34 H11        -0.1531    0.5335    1.9082 H         1 <0>         0.0000
     35 H12         0.7975    1.7493    1.0822 H         1 <0>         0.0000
     36 H13        -1.6176    0.2727   -0.0585 H         1 <0>         0.0000
     37 H14        -0.7009    1.4813   -0.9501 H         1 <0>         0.0000
     38 H15         2.9484    0.3859    1.4229 H         1 <0>         0.0000
     39 H16         0.5915   -1.2082    0.2610 H         1 <0>         0.0000
     40 H17        -2.7965    2.4239   -1.4795 H         1 <0>         0.0000
     41 H18         0.8845    0.1717   -1.5934 H         1 <0>         0.0000
     42 H19         2.2416   -0.6802   -1.2969 H         1 <0>         0.0000
     43 H20         2.1281   -0.4306    5.5750 H         1 <0>         0.0000
     44 H21         1.9478    0.9869    3.2798 H         1 <0>         0.0000
     45 H22         2.7041   -2.3378    0.6655 H         1 <0>         0.0000
@<TRIPOS>BOND
     1    1    2 ar
     2    1    3 ar
     3    2    5 ar
     4    3    6 ar
     5    4    5 ar
     6    4    6 ar
     7    5    7 1
     8    6   23 1
     9    7   17 am
    10    7   19 2
    11    8   13 1
    12    8   18 am
    13    8   20 2
    14    9   15 1
    15   10   15 1
    16   11   12 1
    17   11   14 1
    18   12   22 1
    19   13   14 1
    20   13   21 1
    21   14   16 1
    22   15   22 1
    23   17   18 1
    24    1   24 1
    25    2   25 1
    26    3   26 1
    27    4   27 1
    28    9   28 1
    29    9   29 1
    30    9   30 1
    31   10   31 1
    32   10   32 1
    33   10   33 1
    34   11   34 1
    35   11   35 1
    36   12   36 1
    37   12   37 1
    38   13   38 1
    39   14   39 1
    40   15   40 1
    41   16   41 1
    42   16   42 1
    43   17   43 1
    44   18   44 1
    45   21   45 1
@<TRIPOS>MOLECULE
LIGAND
   45    45     0     0     0
SMALL
NO_CHARGES

@<TRIPOS>ATOM
      1 C1          0.2436   -1.5853    8.6879 C.ar      1 <0>         0.0000
      2 C2          0.6848   -1.3243    7.3907 C.ar      1 <0>         0.0000
      3 C3          1.0636   -1.2882    9.7766 C.ar      1 <0>         0.0000
      4 C4          2.7661   -0.4692    8.2707 C.ar      1 <0>         0.0000
      5 C5          1.9460   -0.7663    7.1821 C.ar      1 <0>         0.0000
      6 C6          2.3248   -0.7302    9.5679 C.ar      1 <0>         0.0000
      7 C7          2.4155   -0.4891    5.7998 C.2       1 <0>         0.0000
      8 C8          1.9325   -1.0133    2.6768 C.2       1 <0>         0.0000
      9 C9         -4.1299   -0.4675   -2.0276 C.3       1 <0>         0.0000
     10 C10        -4.2566    1.4118   -0.3565 C.3       1 <0>         0.0000
     11 C11         0.2195    0.8307    0.9188 C.3       1 <0>         0.0000
     12 C12        -1.0001    1.1700    0.0549 C.3       1 <0>         0.0000
     13 C13         2.3649   -0.5352    1.2935 C.3       1 <0>         0.0000
     14 C14         1.1534   -0.2750    0.3710 C.3       1 <0>         0.0000
     15 C15        -3.3416    0.5718   -1.2395 C.3       1 <0>         0.0000
     16 N1          1.6681    0.0834   -0.9557 N.3       1 <0>         0.0000
     17 N2          1.4238   -0.2520    4.8674 N.am      1 <0>         0.0000
     18 N3          1.7877    0.0290    3.5734 N.am      1 <0>         0.0000
     19 O1          3.6213   -0.4699    5.5658 O.2       1 <0>         0.0000
     20 O2          1.7602   -2.2018    2.9407 O.2       1 <0>         0.0000
     21 O3          3.2186   -1.5159    0.7230 O.3       1 <0>         0.0000
     22 S1         -2.0977   -0.2515   -0.2193 S.3       1 <0>         0.0000
     23 Cl1         3.3359   -0.3635   10.9117 Cl        1 <0>         0.0000
     24 H1         -0.7386   -2.0195    8.8502 H         1 <0>         0.0000
     25 H2          0.0368   -1.5602    6.5505 H         1 <0>         0.0000
     26 H3          0.7063   -1.4972   10.7816 H         1 <0>         0.0000
     27 H4          3.7493   -0.0335    8.1049 H         1 <0>         0.0000
     28 H5         -4.6663   -1.1363   -1.3453 H         1 <0>         0.0000
     29 H6         -4.8772    0.0053   -2.6747 H         1 <0>         0.0000
     30 H7         -3.4774   -1.0886   -2.6519 H         1 <0>         0.0000
     31 H8         -4.7949    0.7719    0.3515 H         1 <0>         0.0000
     32 H9         -5.0077    1.9429   -0.9517 H         1 <0>         0.0000
     33 H10        -3.6957    2.1500    0.2280 H         1 <0>         0.0000
     34 H11        -0.1531    0.5335    1.9082 H         1 <0>         0.0000
     35 H12         0.7975    1.7493    1.0822 H         1 <0>         0.0000
     36 H13        -0.6573    1.5138   -0.9268 H         1 <0>         0.0000
     37 H14        -1.5832    1.9849    0.4933 H         1 <0>         0.0000
     38 H15         2.9484    0.3859    1.4229 H         1 <0>         0.0000
     39 H16         0.5915   -1.2082    0.2610 H         1 <0>         0.0000
     40 H17        -2.8138    1.2291   -1.9386 H         1 <0>         0.0000
     41 H18         0.8845    0.1717   -1.5934 H         1 <0>         0.0000
     42 H19         2.2416   -0.6802   -1.2969 H         1 <0>         0.0000
     43 H20         0.4458   -0.2847    5.1337 H         1 <0>         0.0000
     44 H21         1.9478    0.9869    3.2798 H         1 <0>         0.0000
     45 H22         2.7041   -2.3378    0.6655 H         1 <0>         0.0000
@<TRIPOS>BOND
     1    1    2 ar
     2    1    3 ar
     3    2    5 ar
     4    3    6 ar
     5    4    5 ar
     6    4    6 ar
     7    5    7 1
     8    6   23 1
     9    7   17 am
    10    7   19 2
    11    8   13 1
    12    8   18 am
    13    8   20 2
    14    9   15 1
    15   10   15 1
    16   11   12 1
    17   11   14 1
    18   12   22 1
    19   13   14 1
    20   13   21 1
    21   14   16 1
    22   15   22 1
    23   17   18 1
    24    1   24 1
    25    2   25 1
    26    3   26 1
    27    4   27 1
    28    9   28 1
    29    9   29 1
    30    9   30 1
    31   10   31 1
    32   10   32 1
    33   10   33 1
    34   11   34 1
    35   11   35 1
    36   12   36 1
    37   12   37 1
    38   13   38 1
    39   14   39 1
    40   15   40 1
    41   16   41 1
    42   16   42 1
    43   17   43 1
    44   18   44 1
    45   21   45 1
@<TRIPOS>MOLECULE
LIGAND
   45    45     0     0     0
SMALL
NO_CHARGES

@<TRIPOS>ATOM
      1 C1          0.2838   -0.5121    8.9168 C.ar      1 <0>         0.0000
      2 C2          0.7255   -0.2519    7.6195 C.ar      1 <0>         0.0000
      3 C3          1.0627   -1.2866    9.7766 C.ar      1 <0>         0.0000
      4 C4          2.7249   -1.5408    8.0419 C.ar      1 <0>         0.0000
      5 C5          1.9460   -0.7663    7.1821 C.ar      1 <0>         0.0000
      6 C6          2.2832   -1.8009    9.3391 C.ar      1 <0>         0.0000
      7 C7          2.4155   -0.4891    5.7998 C.2       1 <0>         0.0000
      8 C8          1.9325   -1.0133    2.6768 C.2       1 <0>         0.0000
      9 C9         -4.1299   -0.4675   -2.0276 C.3       1 <0>         0.0000
     10 C10        -4.2566    1.4118   -0.3565 C.3       1 <0>         0.0000
     11 C11         0.2195    0.8307    0.9188 C.3       1 <0>         0.0000
     12 C12        -1.0001    1.1700    0.0549 C.3       1 <0>         0.0000
     13 C13         2.3649   -0.5352    1.2935 C.3       1 <0>         0.0000
     14 C14         1.1534   -0.2750    0.3710 C.3       1 <0>         0.0000
     15 C15        -3.3416    0.5718   -1.2395 C.3       1 <0>         0.0000
     16 N1          1.6681    0.0834   -0.9557 N.3       1 <0>         0.0000
     17 N2          1.4238   -0.2520    4.8674 N.am      1 <0>         0.0000
     18 N3          1.7877    0.0290    3.5734 N.am      1 <0>         0.0000
     19 O1          3.6213   -0.4699    5.5658 O.2       1 <0>         0.0000
     20 O2          1.7602   -2.2018    2.9407 O.2       1 <0>         0.0000
     21 O3          3.2186   -1.5159    0.7230 O.3       1 <0>         0.0000
     22 S1         -2.0977   -0.2515   -0.2193 S.3       1 <0>         0.0000
     23 Cl1         3.2440   -2.7561   10.4008 Cl        1 <0>         0.0000
     24 H1         -0.6664   -0.1113    9.2573 H         1 <0>         0.0000
     25 H2          0.1097    0.3528    6.9588 H         1 <0>         0.0000
     26 H3          0.7056   -1.4810   10.7846 H         1 <0>         0.0000
     27 H4          3.6769   -1.9403    7.6980 H         1 <0>         0.0000
     28 H5         -4.6663   -1.1363   -1.3453 H         1 <0>         0.0000
     29 H6         -4.8772    0.0053   -2.6747 H         1 <0>         0.0000
     30 H7         -3.4774   -1.0886   -2.6519 H         1 <0>         0.0000
     31 H8         -4.7949    0.7719    0.3515 H         1 <0>         0.0000
     32 H9         -5.0077    1.9429   -0.9517 H         1 <0>         0.0000
     33 H10        -3.6957    2.1500    0.2280 H         1 <0>         0.0000
     34 H11        -0.1531    0.5335    1.9082 H         1 <0>         0.0000
     35 H12         0.7975    1.7493    1.0822 H         1 <0>         0.0000
     36 H13        -0.6573    1.5138   -0.9268 H         1 <0>         0.0000
     37 H14        -1.5832    1.9849    0.4933 H         1 <0>         0.0000
     38 H15         2.9484    0.3859    1.4229 H         1 <0>         0.0000
     39 H16         0.5915   -1.2082    0.2610 H         1 <0>         0.0000
     40 H17        -2.8138    1.2291   -1.9386 H         1 <0>         0.0000
     41 H18         0.8845    0.1717   -1.5934 H         1 <0>         0.0000
     42 H19         2.2416   -0.6802   -1.2969 H         1 <0>         0.0000
     43 H20         0.4458   -0.2847    5.1337 H         1 <0>         0.0000
     44 H21         1.9478    0.9869    3.2798 H         1 <0>         0.0000
     45 H22         2.7041   -2.3378    0.6655 H         1 <0>         0.0000
@<TRIPOS>BOND
     1    1    2 ar
     2    1    3 ar
     3    2    5 ar
     4    3    6 ar
     5    4    5 ar
     6    4    6 ar
     7    5    7 1
     8    6   23 1
     9    7   17 am
    10    7   19 2
    11    8   13 1
    12    8   18 am
    13    8   20 2
    14    9   15 1
    15   10   15 1
    16   11   12 1
    17   11   14 1
    18   12   22 1
    19   13   14 1
    20   13   21 1
    21   14   16 1
    22   15   22 1
    23   17   18 1
    24    1   24 1
    25    2   25 1
    26    3   26 1
    27    4   27 1
    28    9   28 1
    29    9   29 1
    30    9   30 1
    31   10   31 1
    32   10   32 1
    33   10   33 1
    34   11   34 1
    35   11   35 1
    36   12   36 1
    37   12   37 1
    38   13   38 1
    39   14   39 1
    40   15   40 1
    41   16   41 1
    42   16   42 1
    43   17   43 1
    44   18   44 1
    45   21   45 1
@<TRIPOS>MOLECULE
LIGAND
   45    45     0     0     0
SMALL
NO_CHARGES

@<TRIPOS>ATOM
      1 C1          2.0462   -2.6934    8.8028 C.ar      1 <0>         0.0000
      2 C2          2.3675   -2.2849    7.5084 C.ar      1 <0>         0.0000
      3 C3          2.5342   -1.9832    9.8997 C.ar      1 <0>         0.0000
      4 C4          3.6652   -0.4561    8.4077 C.ar      1 <0>         0.0000
      5 C5          3.1771   -1.1663    7.3108 C.ar      1 <0>         0.0000
      6 C6          3.3437   -0.8646    9.7021 C.ar      1 <0>         0.0000
      7 C7          3.5194   -0.7323    5.9316 C.2       1 <0>         0.0000
      8 C8          1.9325   -1.0133    2.6768 C.2       1 <0>         0.0000
      9 C9          0.9492    3.5395    4.1781 C.3       1 <0>         0.0000
     10 C10        -1.5671    3.4454    4.1811 C.3       1 <0>         0.0000
     11 C11         0.2195    0.8307    0.9188 C.3       1 <0>         0.0000
     12 C12         0.8590    2.2074    1.1305 C.3       1 <0>         0.0000
     13 C13         2.3649   -0.5352    1.2935 C.3       1 <0>         0.0000
     14 C14         1.1534   -0.2750    0.3710 C.3       1 <0>         0.0000
     15 C15        -0.2901    2.9668    3.5009 C.3       1 <0>         0.0000
     16 N1          1.6681    0.0834   -0.9557 N.3       1 <0>         0.0000
     17 N2          2.6023   -1.0670    4.9540 N.am      1 <0>         0.0000
     18 N3          2.8469   -0.6810    3.6590 N.am      1 <0>         0.0000
     19 O1          4.5579   -0.1051    5.7380 O.2       1 <0>         0.0000
     20 O2          0.8915   -1.6405    2.8632 O.2       1 <0>         0.0000
     21 O3          3.2186   -1.5159    0.7230 O.3       1 <0>         0.0000
     22 S1         -0.3102    3.4478    1.7590 S.3       1 <0>         0.0000
     23 Cl1         3.9453    0.0115   11.0560 Cl        1 <0>         0.0000
     24 H1          1.4156   -3.5642    8.9563 H         1 <0>         0.0000
     25 H2          1.9813   -2.8465    6.6616 H         1 <0>         0.0000
     26 H3          2.2754   -2.3133   10.9024 H         1 <0>         0.0000
     27 H4          4.2960    0.4165    8.2506 H         1 <0>         0.0000
     28 H5          0.9275    4.6347    4.1481 H         1 <0>         0.0000
     29 H6          1.0005    3.2436    5.2319 H         1 <0>         0.0000
     30 H7          1.8721    3.2151    3.6839 H         1 <0>         0.0000
     31 H8         -1.6274    4.5391    4.1512 H         1 <0>         0.0000
     32 H9         -1.5938    3.1464    5.2349 H         1 <0>         0.0000
     33 H10        -2.4642    3.0528    3.6891 H         1 <0>         0.0000
     34 H11        -0.6259    0.9652    0.2307 H         1 <0>         0.0000
     35 H12        -0.2197    0.5004    1.8688 H         1 <0>         0.0000
     36 H13         1.2423    2.5738    0.1722 H         1 <0>         0.0000
     37 H14         1.7108    2.1489    1.8142 H         1 <0>         0.0000
     38 H15         2.9484    0.3859    1.4229 H         1 <0>         0.0000
     39 H16         0.5915   -1.2082    0.2610 H         1 <0>         0.0000
     40 H17        -0.2491    1.8731    3.5416 H         1 <0>         0.0000
     41 H18         0.8845    0.1717   -1.5934 H         1 <0>         0.0000
     42 H19         2.2416   -0.6802   -1.2969 H         1 <0>         0.0000
     43 H20         1.7643   -1.5880    5.1884 H         1 <0>         0.0000
     44 H21         3.6858   -0.1599    3.4266 H         1 <0>         0.0000
     45 H22         2.7041   -2.3378    0.6655 H         1 <0>         0.0000
@<TRIPOS>BOND
     1    1    2 ar
     2    1    3 ar
     3    2    5 ar
     4    3    6 ar
     5    4    5 ar
     6    4    6 ar
     7    5    7 1
     8    6   23 1
     9    7   17 am
    10    7   19 2
    11    8   13 1
    12    8   18 am
    13    8   20 2
    14    9   15 1
    15   10   15 1
    16   11   12 1
    17   11   14 1
    18   12   22 1
    19   13   14 1
    20   13   21 1
    21   14   16 1
    22   15   22 1
    23   17   18 1
    24    1   24 1
    25    2   25 1
    26    3   26 1
    27    4   27 1
    28    9   28 1
    29    9   29 1
    30    9   30 1
    31   10   31 1
    32   10   32 1
    33   10   33 1
    34   11   34 1
    35   11   35 1
    36   12   36 1
    37   12   37 1
    38   13   38 1
    39   14   39 1
    40   15   40 1
    41   16   41 1
    42   16   42 1
    43   17   43 1
    44   18   44 1
    45   21   45 1
@<TRIPOS>MOLECULE
LIGAND
   45    45     0     0     0
SMALL
NO_CHARGES

@<TRIPOS>ATOM
      1 C1         -1.1762    0.4854    8.8459 C.ar      1 <0>         0.0000
      2 C2         -0.8244    0.8446    7.5448 C.ar      1 <0>         0.0000
      3 C3         -0.3849   -0.4152    9.5589 C.ar      1 <0>         0.0000
      4 C4          1.1100   -0.5975    7.6697 C.ar      1 <0>         0.0000
      5 C5          0.3186    0.3032    6.9567 C.ar      1 <0>         0.0000
      6 C6          0.7582   -0.9567    8.9708 C.ar      1 <0>         0.0000
      7 C7          0.6923    0.6859    5.5704 C.2       1 <0>         0.0000
      8 C8          1.9325   -1.0133    2.6768 C.2       1 <0>         0.0000
      9 C9         -3.5953   -0.8020   -2.4330 C.3       1 <0>         0.0000
     10 C10        -4.0047    1.3935   -1.2699 C.3       1 <0>         0.0000
     11 C11         0.2195    0.8307    0.9188 C.3       1 <0>         0.0000
     12 C12        -1.0001    1.1700    0.0549 C.3       1 <0>         0.0000
     13 C13         2.3649   -0.5352    1.2935 C.3       1 <0>         0.0000
     14 C14         1.1534   -0.2750    0.3710 C.3       1 <0>         0.0000
     15 C15        -2.9606    0.3632   -1.6834 C.3       1 <0>         0.0000
     16 N1          1.6681    0.0834   -0.9557 N.3       1 <0>         0.0000
     17 N2          1.4238   -0.2520    4.8674 N.am      1 <0>         0.0000
     18 N3          1.7877    0.0290    3.5734 N.am      1 <0>         0.0000
     19 O1          0.3313    1.7736    5.1279 O.2       1 <0>         0.0000
     20 O2          1.7602   -2.2018    2.9407 O.2       1 <0>         0.0000
     21 O3          3.2186   -1.5159    0.7230 O.3       1 <0>         0.0000
     22 S1         -2.0977   -0.2515   -0.2193 S.3       1 <0>         0.0000
     23 Cl1         1.7344   -2.0675    9.8514 Cl        1 <0>         0.0000
     24 H1         -2.0661    0.9073    9.3037 H         1 <0>         0.0000
     25 H2         -1.4491    1.5473    6.9992 H         1 <0>         0.0000
     26 H3         -0.6715   -0.6858   10.5719 H         1 <0>         0.0000
     27 H4          2.0015   -1.0178    7.2086 H         1 <0>         0.0000
     28 H5         -4.3436   -1.2969   -1.8040 H         1 <0>         0.0000
     29 H6         -4.1065   -0.4613   -3.3404 H         1 <0>         0.0000
     30 H7         -2.8540   -1.5571   -2.7183 H         1 <0>         0.0000
     31 H8         -4.7593    0.9323   -0.6229 H         1 <0>         0.0000
     32 H9         -4.5284    1.8023   -2.1412 H         1 <0>         0.0000
     33 H10        -3.5593    2.2264   -0.7139 H         1 <0>         0.0000
     34 H11        -0.1531    0.5335    1.9082 H         1 <0>         0.0000
     35 H12         0.7975    1.7493    1.0822 H         1 <0>         0.0000
     36 H13        -0.6573    1.5138   -0.9268 H         1 <0>         0.0000
     37 H14        -1.5832    1.9849    0.4933 H         1 <0>         0.0000
     38 H15         2.9484    0.3859    1.4229 H         1 <0>         0.0000
     39 H16         0.5915   -1.2082    0.2610 H         1 <0>         0.0000
     40 H17        -2.2171    0.8435   -2.3283 H         1 <0>         0.0000
     41 H18         0.8845    0.1717   -1.5934 H         1 <0>         0.0000
     42 H19         2.2416   -0.6802   -1.2969 H         1 <0>         0.0000
     43 H20         1.6871   -1.1312    5.2989 H         1 <0>         0.0000
     44 H21         1.9478    0.9869    3.2798 H         1 <0>         0.0000
     45 H22         2.7041   -2.3378    0.6655 H         1 <0>         0.0000
@<TRIPOS>BOND
     1    1    2 ar
     2    1    3 ar
     3    2    5 ar
     4    3    6 ar
     5    4    5 ar
     6    4    6 ar
     7    5    7 1
     8    6   23 1
     9    7   17 am
    10    7   19 2
    11    8   13 1
    12    8   18 am
    13    8   20 2
    14    9   15 1
    15   10   15 1
    16   11   12 1
    17   11   14 1
    18   12   22 1
    19   13   14 1
    20   13   21 1
    21   14   16 1
    22   15   22 1
    23   17   18 1
    24    1   24 1
    25    2   25 1
    26    3   26 1
    27    4   27 1
    28    9   28 1
    29    9   29 1
    30    9   30 1
    31   10   31 1
    32   10   32 1
    33   10   33 1
    34   11   34 1
    35   11   35 1
    36   12   36 1
    37   12   37 1
    38   13   38 1
    39   14   39 1
    40   15   40 1
    41   16   41 1
    42   16   42 1
    43   17   43 1
    44   18   44 1
    45   21   45 1
@<TRIPOS>MOLECULE
LIGAND
   45    45     0     0     0
SMALL
NO_CHARGES

@<TRIPOS>ATOM
      1 C1         -0.2456    0.9322    9.2201 C.ar      1 <0>         0.0000
      2 C2          0.1058    1.2906    7.9187 C.ar      1 <0>         0.0000
      3 C3         -0.3840   -0.4137    9.5596 C.ar      1 <0>         0.0000
      4 C4          0.1802   -1.0427    7.2962 C.ar      1 <0>         0.0000
      5 C5          0.3186    0.3032    6.9567 C.ar      1 <0>         0.0000
      6 C6         -0.1712   -1.4011    8.5976 C.ar      1 <0>         0.0000
      7 C7          0.6923    0.6859    5.5704 C.2       1 <0>         0.0000
      8 C8          1.9325   -1.0133    2.6768 C.2       1 <0>         0.0000
      9 C9         -4.2967    1.3927   -0.3375 C.3       1 <0>         0.0000
     10 C10        -4.0071    3.8901   -0.4781 C.3       1 <0>         0.0000
     11 C11         0.2195    0.8307    0.9188 C.3       1 <0>         0.0000
     12 C12        -1.0001    1.1700    0.0549 C.3       1 <0>         0.0000
     13 C13         2.3649   -0.5352    1.2935 C.3       1 <0>         0.0000
     14 C14         1.1534   -0.2750    0.3710 C.3       1 <0>         0.0000
     15 C15        -3.3066    2.5373   -0.5169 C.3       1 <0>         0.0000
     16 N1          1.6681    0.0834   -0.9557 N.3       1 <0>         0.0000
     17 N2          1.4238   -0.2520    4.8674 N.am      1 <0>         0.0000
     18 N3          1.7877    0.0290    3.5734 N.am      1 <0>         0.0000
     19 O1          0.3313    1.7736    5.1279 O.2       1 <0>         0.0000
     20 O2          1.7602   -2.2018    2.9407 O.2       1 <0>         0.0000
     21 O3          3.2186   -1.5159    0.7230 O.3       1 <0>         0.0000
     22 S1         -2.0492    2.4644    0.7791 S.3       1 <0>         0.0000
     23 Cl1        -0.3417   -3.0616    9.0174 Cl        1 <0>         0.0000
     24 H1         -0.4110    1.7011    9.9690 H         1 <0>         0.0000
     25 H2          0.2105    2.3426    7.6662 H         1 <0>         0.0000
     26 H3         -0.6583   -0.6779   10.5776 H         1 <0>         0.0000
     27 H4          0.3474   -1.8109    6.5438 H         1 <0>         0.0000
     28 H5         -4.8186    1.4878    0.6213 H         1 <0>         0.0000
     29 H6         -5.0586    1.3975   -1.1249 H         1 <0>         0.0000
     30 H7         -3.7990    0.4164   -0.3457 H         1 <0>         0.0000
     31 H8         -4.5245    4.0235    0.4785 H         1 <0>         0.0000
     32 H9         -4.7599    3.9723   -1.2700 H         1 <0>         0.0000
     33 H10        -3.2998    4.7201   -0.5881 H         1 <0>         0.0000
     34 H11        -0.1531    0.5335    1.9082 H         1 <0>         0.0000
     35 H12         0.7975    1.7493    1.0822 H         1 <0>         0.0000
     36 H13        -1.6176    0.2727   -0.0585 H         1 <0>         0.0000
     37 H14        -0.7009    1.4813   -0.9501 H         1 <0>         0.0000
     38 H15         2.9484    0.3859    1.4229 H         1 <0>         0.0000
     39 H16         0.5915   -1.2082    0.2610 H         1 <0>         0.0000
     40 H17        -2.7965    2.4239   -1.4795 H         1 <0>         0.0000
     41 H18         0.8845    0.1717   -1.5934 H         1 <0>         0.0000
     42 H19         2.2416   -0.6802   -1.2969 H         1 <0>         0.0000
     43 H20         1.6871   -1.1312    5.2989 H         1 <0>         0.0000
     44 H21         1.9478    0.9869    3.2798 H         1 <0>         0.0000
     45 H22         2.7041   -2.3378    0.6655 H         1 <0>         0.0000
@<TRIPOS>BOND
     1    1    2 ar
     2    1    3 ar
     3    2    5 ar
     4    3    6 ar
     5    4    5 ar
     6    4    6 ar
     7    5    7 1
     8    6   23 1
     9    7   17 am
    10    7   19 2
    11    8   13 1
    12    8   18 am
    13    8   20 2
    14    9   15 1
    15   10   15 1
    16   11   12 1
    17   11   14 1
    18   12   22 1
    19   13   14 1
    20   13   21 1
    21   14   16 1
    22   15   22 1
    23   17   18 1
    24    1   24 1
    25    2   25 1
    26    3   26 1
    27    4   27 1
    28    9   28 1
    29    9   29 1
    30    9   30 1
    31   10   31 1
    32   10   32 1
    33   10   33 1
    34   11   34 1
    35   11   35 1
    36   12   36 1
    37   12   37 1
    38   13   38 1
    39   14   39 1
    40   15   40 1
    41   16   41 1
    42   16   42 1
    43   17   43 1
    44   18   44 1
    45   21   45 1
@<TRIPOS>MOLECULE
LIGAND
   45    45     0     0     0
SMALL
NO_CHARGES

@<TRIPOS>ATOM
      1 C1          0.3098   -0.7270    9.1684 C.ar      1 <0>         0.0000
      2 C2          0.5387   -0.2630    7.8731 C.ar      1 <0>         0.0000
      3 C3          1.1930   -1.6369    9.7496 C.ar      1 <0>         0.0000
      4 C4          2.5339   -1.6190    7.7400 C.ar      1 <0>         0.0000
      5 C5          1.6507   -0.7090    7.1588 C.ar      1 <0>         0.0000
      6 C6          2.3050   -2.0829    9.0354 C.ar      1 <0>         0.0000
      7 C7          1.8934   -0.2148    5.7787 C.2       1 <0>         0.0000
      8 C8          1.9325   -1.0133    2.6768 C.2       1 <0>         0.0000
      9 C9         -2.8396    0.6809   -2.6742 C.3       1 <0>         0.0000
     10 C10        -4.6560   -0.1960   -1.1670 C.3       1 <0>         0.0000
     11 C11         0.2195    0.8307    0.9188 C.3       1 <0>         0.0000
     12 C12        -1.0001    1.1700    0.0549 C.3       1 <0>         0.0000
     13 C13         2.3649   -0.5352    1.2935 C.3       1 <0>         0.0000
     14 C14         1.1534   -0.2750    0.3710 C.3       1 <0>         0.0000
     15 C15        -3.3416    0.5718   -1.2395 C.3       1 <0>         0.0000
     16 N1          1.6681    0.0834   -0.9557 N.3       1 <0>         0.0000
     17 N2          2.6023   -1.0670    4.9540 N.am      1 <0>         0.0000
     18 N3          2.8469   -0.6810    3.6590 N.am      1 <0>         0.0000
     19 O1          1.4534    0.8829    5.4461 O.2       1 <0>         0.0000
     20 O2          0.8915   -1.6405    2.8632 O.2       1 <0>         0.0000
     21 O3          3.2186   -1.5159    0.7230 O.3       1 <0>         0.0000
     22 S1         -2.0977   -0.2515   -0.2193 S.3       1 <0>         0.0000
     23 Cl1         3.3947   -3.2053    9.7533 Cl        1 <0>         0.0000
     24 H1         -0.5558   -0.3793    9.7245 H         1 <0>         0.0000
     25 H2         -0.1567    0.4458    7.4309 H         1 <0>         0.0000
     26 H3          1.0018   -1.9896   10.7598 H         1 <0>         0.0000
     27 H4          3.4009   -1.9648    7.1806 H         1 <0>         0.0000
     28 H5         -2.6847   -0.3167   -3.1002 H         1 <0>         0.0000
     29 H6         -3.5648    1.1984   -3.3121 H         1 <0>         0.0000
     30 H7         -1.8850    1.2160   -2.7338 H         1 <0>         0.0000
     31 H8         -4.5291   -1.2071   -1.5698 H         1 <0>         0.0000
     32 H9         -5.4375    0.2943   -1.7580 H         1 <0>         0.0000
     33 H10        -5.0153   -0.2952   -0.1363 H         1 <0>         0.0000
     34 H11        -0.1531    0.5335    1.9082 H         1 <0>         0.0000
     35 H12         0.7975    1.7493    1.0822 H         1 <0>         0.0000
     36 H13        -0.6573    1.5138   -0.9268 H         1 <0>         0.0000
     37 H14        -1.5832    1.9849    0.4933 H         1 <0>         0.0000
     38 H15         2.9484    0.3859    1.4229 H         1 <0>         0.0000
     39 H16         0.5915   -1.2082    0.2610 H         1 <0>         0.0000
     40 H17        -3.4899    1.5778   -0.8328 H         1 <0>         0.0000
     41 H18         0.8845    0.1717   -1.5934 H         1 <0>         0.0000
     42 H19         2.2416   -0.6802   -1.2969 H         1 <0>         0.0000
     43 H20         2.9356   -1.9607    5.2985 H         1 <0>         0.0000
     44 H21         3.6858   -0.1599    3.4266 H         1 <0>         0.0000
     45 H22         2.7041   -2.3378    0.6655 H         1 <0>         0.0000
@<TRIPOS>BOND
     1    1    2 ar
     2    1    3 ar
     3    2    5 ar
     4    3    6 ar
     5    4    5 ar
     6    4    6 ar
     7    5    7 1
     8    6   23 1
     9    7   17 am
    10    7   19 2
    11    8   13 1
    12    8   18 am
    13    8   20 2
    14    9   15 1
    15   10   15 1
    16   11   12 1
    17   11   14 1
    18   12   22 1
    19   13   14 1
    20   13   21 1
    21   14   16 1
    22   15   22 1
    23   17   18 1
    24    1   24 1
    25    2   25 1
    26    3   26 1
    27    4   27 1
    28    9   28 1
    29    9   29 1
    30    9   30 1
    31   10   31 1
    32   10   32 1
    33   10   33 1
    34   11   34 1
    35   11   35 1
    36   12   36 1
    37   12   37 1
    38   13   38 1
    39   14   39 1
    40   15   40 1
    41   16   41 1
    42   16   42 1
    43   17   43 1
    44   18   44 1
    45   21   45 1
@<TRIPOS>MOLECULE
LIGAND
   45    45     0     0     0
SMALL
NO_CHARGES

@<TRIPOS>ATOM
      1 C1          1.4050   -2.4049    8.7677 C.ar      1 <0>         0.0000
      2 C2          1.6744   -2.0859    7.4368 C.ar      1 <0>         0.0000
      3 C3          2.2499   -3.2707    9.4621 C.ar      1 <0>         0.0000
      4 C4          3.6334   -3.4986    7.4947 C.ar      1 <0>         0.0000
      5 C5          2.7886   -2.6327    6.8003 C.ar      1 <0>         0.0000
      6 C6          3.3641   -3.8176    8.8256 C.ar      1 <0>         0.0000
      7 C7          3.0744   -2.2928    5.3823 C.2       1 <0>         0.0000
      8 C8          1.9325   -1.0133    2.6768 C.2       1 <0>         0.0000
      9 C9         -2.8396    0.6809   -2.6742 C.3       1 <0>         0.0000
     10 C10        -4.6560   -0.1960   -1.1670 C.3       1 <0>         0.0000
     11 C11         0.2195    0.8307    0.9188 C.3       1 <0>         0.0000
     12 C12        -1.0001    1.1700    0.0549 C.3       1 <0>         0.0000
     13 C13         2.3649   -0.5352    1.2935 C.3       1 <0>         0.0000
     14 C14         1.1534   -0.2750    0.3710 C.3       1 <0>         0.0000
     15 C15        -3.3416    0.5718   -1.2395 C.3       1 <0>         0.0000
     16 N1          1.6681    0.0834   -0.9557 N.3       1 <0>         0.0000
     17 N2          2.6023   -1.0670    4.9540 N.am      1 <0>         0.0000
     18 N3          2.8469   -0.6810    3.6590 N.am      1 <0>         0.0000
     19 O1          3.7083   -3.0847    4.6892 O.2       1 <0>         0.0000
     20 O2          0.8915   -1.6405    2.8632 O.2       1 <0>         0.0000
     21 O3          3.2186   -1.5159    0.7230 O.3       1 <0>         0.0000
     22 S1         -2.0977   -0.2515   -0.2193 S.3       1 <0>         0.0000
     23 Cl1         4.4064   -4.8856    9.6833 Cl        1 <0>         0.0000
     24 H1          0.5376   -1.9787    9.2631 H         1 <0>         0.0000
     25 H2          1.0086   -1.4100    6.9061 H         1 <0>         0.0000
     26 H3          2.0273   -3.5102   10.4987 H         1 <0>         0.0000
     27 H4          4.5022   -3.9233    6.9958 H         1 <0>         0.0000
     28 H5         -2.6847   -0.3167   -3.1002 H         1 <0>         0.0000
     29 H6         -3.5648    1.1984   -3.3121 H         1 <0>         0.0000
     30 H7         -1.8850    1.2160   -2.7338 H         1 <0>         0.0000
     31 H8         -4.5291   -1.2071   -1.5698 H         1 <0>         0.0000
     32 H9         -5.4375    0.2943   -1.7580 H         1 <0>         0.0000
     33 H10        -5.0153   -0.2952   -0.1363 H         1 <0>         0.0000
     34 H11        -0.1531    0.5335    1.9082 H         1 <0>         0.0000
     35 H12         0.7975    1.7493    1.0822 H         1 <0>         0.0000
     36 H13        -0.6573    1.5138   -0.9268 H         1 <0>         0.0000
     37 H14        -1.5832    1.9849    0.4933 H         1 <0>         0.0000
     38 H15         2.9484    0.3859    1.4229 H         1 <0>         0.0000
     39 H16         0.5915   -1.2082    0.2610 H         1 <0>         0.0000
     40 H17        -3.4899    1.5778   -0.8328 H         1 <0>         0.0000
     41 H18         0.8845    0.1717   -1.5934 H         1 <0>         0.0000
     42 H19         2.2416   -0.6802   -1.2969 H         1 <0>         0.0000
     43 H20         2.0849   -0.4638    5.5841 H         1 <0>         0.0000
     44 H21         3.6858   -0.1599    3.4266 H         1 <0>         0.0000
     45 H22         2.7041   -2.3378    0.6655 H         1 <0>         0.0000
@<TRIPOS>BOND
     1    1    2 ar
     2    1    3 ar
     3    2    5 ar
     4    3    6 ar
     5    4    5 ar
     6    4    6 ar
     7    5    7 1
     8    6   23 1
     9    7   17 am
    10    7   19 2
    11    8   13 1
    12    8   18 am
    13    8   20 2
    14    9   15 1
    15   10   15 1
    16   11   12 1
    17   11   14 1
    18   12   22 1
    19   13   14 1
    20   13   21 1
    21   14   16 1
    22   15   22 1
    23   17   18 1
    24    1   24 1
    25    2   25 1
    26    3   26 1
    27    4   27 1
    28    9   28 1
    29    9   29 1
    30    9   30 1
    31   10   31 1
    32   10   32 1
    33   10   33 1
    34   11   34 1
    35   11   35 1
    36   12   36 1
    37   12   37 1
    38   13   38 1
    39   14   39 1
    40   15   40 1
    41   16   41 1
    42   16   42 1
    43   17   43 1
    44   18   44 1
    45   21   45 1
@<TRIPOS>MOLECULE
LIGAND
   45    45     0     0     0
SMALL
NO_CHARGES

@<TRIPOS>ATOM
      1 C1          2.3780   -0.2776    9.6931 C.ar      1 <0>         0.0000
      2 C2          2.6800    0.1631    8.4046 C.ar      1 <0>         0.0000
      3 C3          2.1604   -1.6343    9.9331 C.ar      1 <0>         0.0000
      4 C4          2.5467   -2.1098    7.5961 C.ar      1 <0>         0.0000
      5 C5          2.7643   -0.7530    7.3561 C.ar      1 <0>         0.0000
      6 C6          2.2447   -2.5504    8.8846 C.ar      1 <0>         0.0000
      7 C7          3.0854   -0.2826    5.9837 C.2       1 <0>         0.0000
      8 C8          1.9325   -1.0133    2.6768 C.2       1 <0>         0.0000
      9 C9         -4.0623    0.8550    1.3177 C.3       1 <0>         0.0000
     10 C10        -3.5584   -1.5885    1.6583 C.3       1 <0>         0.0000
     11 C11         0.2195    0.8307    0.9188 C.3       1 <0>         0.0000
     12 C12        -1.0001    1.1700    0.0549 C.3       1 <0>         0.0000
     13 C13         2.3649   -0.5352    1.2935 C.3       1 <0>         0.0000
     14 C14         1.1534   -0.2750    0.3710 C.3       1 <0>         0.0000
     15 C15        -2.9754   -0.2124    1.3599 C.3       1 <0>         0.0000
     16 N1          1.6681    0.0834   -0.9557 N.3       1 <0>         0.0000
     17 N2          2.6023   -1.0670    4.9540 N.am      1 <0>         0.0000
     18 N3          2.8469   -0.6810    3.6590 N.am      1 <0>         0.0000
     19 O1          3.7293    0.7533    5.8374 O.2       1 <0>         0.0000
     20 O2          0.8915   -1.6405    2.8632 O.2       1 <0>         0.0000
     21 O3          3.2186   -1.5159    0.7230 O.3       1 <0>         0.0000
     22 S1         -2.0977   -0.2515   -0.2193 S.3       1 <0>         0.0000
     23 Cl1         1.9766   -4.2245    9.1816 Cl        1 <0>         0.0000
     24 H1          2.3127    0.4358   10.5093 H         1 <0>         0.0000
     25 H2          2.8474    1.2228    8.2300 H         1 <0>         0.0000
     26 H3          1.9260   -1.9630   10.9423 H         1 <0>         0.0000
     27 H4          2.6137   -2.8222    6.7763 H         1 <0>         0.0000
     28 H5         -4.8019    0.6148    0.5457 H         1 <0>         0.0000
     29 H6         -4.5966    0.9180    2.2722 H         1 <0>         0.0000
     30 H7         -3.6542    1.8453    1.0855 H         1 <0>         0.0000
     31 H8         -4.2902   -1.8663    0.8915 H         1 <0>         0.0000
     32 H9         -4.0769   -1.6012    2.6234 H         1 <0>         0.0000
     33 H10        -2.7856   -2.3656    1.6725 H         1 <0>         0.0000
     34 H11        -0.1531    0.5335    1.9082 H         1 <0>         0.0000
     35 H12         0.7975    1.7493    1.0822 H         1 <0>         0.0000
     36 H13        -0.6573    1.5138   -0.9268 H         1 <0>         0.0000
     37 H14        -1.5832    1.9849    0.4933 H         1 <0>         0.0000
     38 H15         2.9484    0.3859    1.4229 H         1 <0>         0.0000
     39 H16         0.5915   -1.2082    0.2610 H         1 <0>         0.0000
     40 H17        -2.2476    0.0460    2.1366 H         1 <0>         0.0000
     41 H18         0.8845    0.1717   -1.5934 H         1 <0>         0.0000
     42 H19         2.2416   -0.6802   -1.2969 H         1 <0>         0.0000
     43 H20         2.0769   -1.9119    5.1509 H         1 <0>         0.0000
     44 H21         3.6858   -0.1599    3.4266 H         1 <0>         0.0000
     45 H22         2.7041   -2.3378    0.6655 H         1 <0>         0.0000
@<TRIPOS>BOND
     1    1    2 ar
     2    1    3 ar
     3    2    5 ar
     4    3    6 ar
     5    4    5 ar
     6    4    6 ar
     7    5    7 1
     8    6   23 1
     9    7   17 am
    10    7   19 2
    11    8   13 1
    12    8   18 am
    13    8   20 2
    14    9   15 1
    15   10   15 1
    16   11   12 1
    17   11   14 1
    18   12   22 1
    19   13   14 1
    20   13   21 1
    21   14   16 1
    22   15   22 1
    23   17   18 1
    24    1   24 1
    25    2   25 1
    26    3   26 1
    27    4   27 1
    28    9   28 1
    29    9   29 1
    30    9   30 1
    31   10   31 1
    32   10   32 1
    33   10   33 1
    34   11   34 1
    35   11   35 1
    36   12   36 1
    37   12   37 1
    38   13   38 1
    39   14   39 1
    40   15   40 1
    41   16   41 1
    42   16   42 1
    43   17   43 1
    44   18   44 1
    45   21   45 1
@<TRIPOS>MOLECULE
LIGAND
   45    45     0     0     0
SMALL
NO_CHARGES

@<TRIPOS>ATOM
      1 C1          2.3269   -0.7274    9.5675 C.ar      1 <0>         0.0000
      2 C2          2.7671   -0.4681    8.2696 C.ar      1 <0>         0.0000
      3 C3          1.0657   -1.2849    9.7779 C.ar      1 <0>         0.0000
      4 C4          0.6848   -1.3238    7.3925 C.ar      1 <0>         0.0000
      5 C5          1.9460   -0.7663    7.1821 C.ar      1 <0>         0.0000
      6 C6          0.2446   -1.5831    8.6904 C.ar      1 <0>         0.0000
      7 C7          2.4155   -0.4891    5.7998 C.2       1 <0>         0.0000
      8 C8          1.9325   -1.0133    2.6768 C.2       1 <0>         0.0000
      9 C9         -4.1299   -0.4675   -2.0276 C.3       1 <0>         0.0000
     10 C10        -4.2566    1.4118   -0.3565 C.3       1 <0>         0.0000
     11 C11         0.2195    0.8307    0.9188 C.3       1 <0>         0.0000
     12 C12        -1.0001    1.1700    0.0549 C.3       1 <0>         0.0000
     13 C13         2.3649   -0.5352    1.2935 C.3       1 <0>         0.0000
     14 C14         1.1534   -0.2750    0.3710 C.3       1 <0>         0.0000
     15 C15        -3.3416    0.5718   -1.2395 C.3       1 <0>         0.0000
     16 N1          1.6681    0.0834   -0.9557 N.3       1 <0>         0.0000
     17 N2          1.4238   -0.2520    4.8674 N.am      1 <0>         0.0000
     18 N3          1.7877    0.0290    3.5734 N.am      1 <0>         0.0000
     19 O1          3.6213   -0.4699    5.5658 O.2       1 <0>         0.0000
     20 O2          1.7602   -2.2018    2.9407 O.2       1 <0>         0.0000
     21 O3          3.2186   -1.5159    0.7230 O.3       1 <0>         0.0000
     22 S1         -2.0977   -0.2515   -0.2193 S.3       1 <0>         0.0000
     23 Cl1        -1.3113   -2.2714    8.9508 Cl        1 <0>         0.0000
     24 H1          2.9664   -0.4955   10.4140 H         1 <0>         0.0000
     25 H2          3.7518   -0.0334    8.1183 H         1 <0>         0.0000
     26 H3          0.7362   -1.4814   10.7949 H         1 <0>         0.0000
     27 H4          0.0467   -1.5558    6.5422 H         1 <0>         0.0000
     28 H5         -4.6663   -1.1363   -1.3453 H         1 <0>         0.0000
     29 H6         -4.8772    0.0053   -2.6747 H         1 <0>         0.0000
     30 H7         -3.4774   -1.0886   -2.6519 H         1 <0>         0.0000
     31 H8         -4.7949    0.7719    0.3515 H         1 <0>         0.0000
     32 H9         -5.0077    1.9429   -0.9517 H         1 <0>         0.0000
     33 H10        -3.6957    2.1500    0.2280 H         1 <0>         0.0000
     34 H11        -0.1531    0.5335    1.9082 H         1 <0>         0.0000
     35 H12         0.7975    1.7493    1.0822 H         1 <0>         0.0000
     36 H13        -0.6573    1.5138   -0.9268 H         1 <0>         0.0000
     37 H14        -1.5832    1.9849    0.4933 H         1 <0>         0.0000
     38 H15         2.9484    0.3859    1.4229 H         1 <0>         0.0000
     39 H16         0.5915   -1.2082    0.2610 H         1 <0>         0.0000
     40 H17        -2.8138    1.2291   -1.9386 H         1 <0>         0.0000
     41 H18         0.8845    0.1717   -1.5934 H         1 <0>         0.0000
     42 H19         2.2416   -0.6802   -1.2969 H         1 <0>         0.0000
     43 H20         0.4458   -0.2847    5.1337 H         1 <0>         0.0000
     44 H21         1.9478    0.9869    3.2798 H         1 <0>         0.0000
     45 H22         2.7041   -2.3378    0.6655 H         1 <0>         0.0000
@<TRIPOS>BOND
     1    1    2 ar
     2    1    3 ar
     3    2    5 ar
     4    3    6 ar
     5    4    5 ar
     6    4    6 ar
     7    5    7 1
     8    6   23 1
     9    7   17 am
    10    7   19 2
    11    8   13 1
    12    8   18 am
    13    8   20 2
    14    9   15 1
    15   10   15 1
    16   11   12 1
    17   11   14 1
    18   12   22 1
    19   13   14 1
    20   13   21 1
    21   14   16 1
    22   15   22 1
    23   17   18 1
    24    1   24 1
    25    2   25 1
    26    3   26 1
    27    4   27 1
    28    9   28 1
    29    9   29 1
    30    9   30 1
    31   10   31 1
    32   10   32 1
    33   10   33 1
    34   11   34 1
    35   11   35 1
    36   12   36 1
    37   12   37 1
    38   13   38 1
    39   14   39 1
    40   15   40 1
    41   16   41 1
    42   16   42 1
    43   17   43 1
    44   18   44 1
    45   21   45 1
@<TRIPOS>MOLECULE
LIGAND
   45    45     0     0     0
SMALL
NO_CHARGES

@<TRIPOS>ATOM
      1 C1          2.3494   -1.9340    9.0709 C.ar      1 <0>         0.0000
      2 C2          2.6184   -1.6158    7.7398 C.ar      1 <0>         0.0000
      3 C3          2.2507   -3.2692    9.4627 C.ar      1 <0>         0.0000
      4 C4          2.6898   -3.9679    7.1920 C.ar      1 <0>         0.0000
      5 C5          2.7886   -2.6327    6.8003 C.ar      1 <0>         0.0000
      6 C6          2.4209   -4.2860    8.5232 C.ar      1 <0>         0.0000
      7 C7          3.0744   -2.2928    5.3823 C.2       1 <0>         0.0000
      8 C8          1.9325   -1.0133    2.6768 C.2       1 <0>         0.0000
      9 C9         -2.8396    0.6809   -2.6742 C.3       1 <0>         0.0000
     10 C10        -4.6560   -0.1960   -1.1670 C.3       1 <0>         0.0000
     11 C11         0.2195    0.8307    0.9188 C.3       1 <0>         0.0000
     12 C12        -1.0001    1.1700    0.0549 C.3       1 <0>         0.0000
     13 C13         2.3649   -0.5352    1.2935 C.3       1 <0>         0.0000
     14 C14         1.1534   -0.2750    0.3710 C.3       1 <0>         0.0000
     15 C15        -3.3416    0.5718   -1.2395 C.3       1 <0>         0.0000
     16 N1          1.6681    0.0834   -0.9557 N.3       1 <0>         0.0000
     17 N2          2.6023   -1.0670    4.9540 N.am      1 <0>         0.0000
     18 N3          2.8469   -0.6810    3.6590 N.am      1 <0>         0.0000
     19 O1          3.7083   -3.0847    4.6892 O.2       1 <0>         0.0000
     20 O2          0.8915   -1.6405    2.8632 O.2       1 <0>         0.0000
     21 O3          3.2186   -1.5159    0.7230 O.3       1 <0>         0.0000
     22 S1         -2.0977   -0.2515   -0.2193 S.3       1 <0>         0.0000
     23 Cl1         2.2994   -5.9333    9.0073 Cl        1 <0>         0.0000
     24 H1          2.2173   -1.1422    9.8023 H         1 <0>         0.0000
     25 H2          2.6929   -0.5718    7.4466 H         1 <0>         0.0000
     26 H3          2.0407   -3.5019   10.5034 H         1 <0>         0.0000
     27 H4          2.8236   -4.7591    6.4570 H         1 <0>         0.0000
     28 H5         -2.6847   -0.3167   -3.1002 H         1 <0>         0.0000
     29 H6         -3.5648    1.1984   -3.3121 H         1 <0>         0.0000
     30 H7         -1.8850    1.2160   -2.7338 H         1 <0>         0.0000
     31 H8         -4.5291   -1.2071   -1.5698 H         1 <0>         0.0000
     32 H9         -5.4375    0.2943   -1.7580 H         1 <0>         0.0000
     33 H10        -5.0153   -0.2952   -0.1363 H         1 <0>         0.0000
     34 H11        -0.1531    0.5335    1.9082 H         1 <0>         0.0000
     35 H12         0.7975    1.7493    1.0822 H         1 <0>         0.0000
     36 H13        -0.6573    1.5138   -0.9268 H         1 <0>         0.0000
     37 H14        -1.5832    1.9849    0.4933 H         1 <0>         0.0000
     38 H15         2.9484    0.3859    1.4229 H         1 <0>         0.0000
     39 H16         0.5915   -1.2082    0.2610 H         1 <0>         0.0000
     40 H17        -3.4899    1.5778   -0.8328 H         1 <0>         0.0000
     41 H18         0.8845    0.1717   -1.5934 H         1 <0>         0.0000
     42 H19         2.2416   -0.6802   -1.2969 H         1 <0>         0.0000
     43 H20         2.0849   -0.4638    5.5841 H         1 <0>         0.0000
     44 H21         3.6858   -0.1599    3.4266 H         1 <0>         0.0000
     45 H22         2.7041   -2.3378    0.6655 H         1 <0>         0.0000
@<TRIPOS>BOND
     1    1    2 ar
     2    1    3 ar
     3    2    5 ar
     4    3    6 ar
     5    4    5 ar
     6    4    6 ar
     7    5    7 1
     8    6   23 1
     9    7   17 am
    10    7   19 2
    11    8   13 1
    12    8   18 am
    13    8   20 2
    14    9   15 1
    15   10   15 1
    16   11   12 1
    17   11   14 1
    18   12   22 1
    19   13   14 1
    20   13   21 1
    21   14   16 1
    22   15   22 1
    23   17   18 1
    24    1   24 1
    25    2   25 1
    26    3   26 1
    27    4   27 1
    28    9   28 1
    29    9   29 1
    30    9   30 1
    31   10   31 1
    32   10   32 1
    33   10   33 1
    34   11   34 1
    35   11   35 1
    36   12   36 1
    37   12   37 1
    38   13   38 1
    39   14   39 1
    40   15   40 1
    41   16   41 1
    42   16   42 1
    43   17   43 1
    44   18   44 1
    45   21   45 1
@<TRIPOS>MOLECULE
LIGAND
   45    45     0     0     0
SMALL
NO_CHARGES

@<TRIPOS>ATOM
      1 C1          0.3537   -1.6987    8.6788 C.ar      1 <0>         0.0000
      2 C2          0.6500   -1.3890    7.3514 C.ar      1 <0>         0.0000
      3 C3         -0.8291   -1.2362    9.2556 C.ar      1 <0>         0.0000
      4 C4         -1.4194   -0.1541    7.1777 C.ar      1 <0>         0.0000
      5 C5         -0.2366   -0.6167    6.6009 C.ar      1 <0>         0.0000
      6 C6         -1.7156   -0.4639    8.5051 C.ar      1 <0>         0.0000
      7 C7          0.0801   -0.2867    5.1871 C.2       1 <0>         0.0000
      8 C8          1.9325   -1.0133    2.6768 C.2       1 <0>         0.0000
      9 C9         -4.5752    3.1779    0.0331 C.3       1 <0>         0.0000
     10 C10        -2.7668    3.3107   -1.7140 C.3       1 <0>         0.0000
     11 C11         0.2195    0.8307    0.9188 C.3       1 <0>         0.0000
     12 C12        -1.0001    1.1700    0.0549 C.3       1 <0>         0.0000
     13 C13         2.3649   -0.5352    1.2935 C.3       1 <0>         0.0000
     14 C14         1.1534   -0.2750    0.3710 C.3       1 <0>         0.0000
     15 C15        -3.3066    2.5373   -0.5169 C.3       1 <0>         0.0000
     16 N1          1.6681    0.0834   -0.9557 N.3       1 <0>         0.0000
     17 N2          1.4238   -0.2520    4.8674 N.am      1 <0>         0.0000
     18 N3          1.7877    0.0290    3.5734 N.am      1 <0>         0.0000
     19 O1         -0.8375   -0.0833    4.3961 O.2       1 <0>         0.0000
     20 O2          1.7602   -2.2018    2.9407 O.2       1 <0>         0.0000
     21 O3          3.2186   -1.5159    0.7230 O.3       1 <0>         0.0000
     22 S1         -2.0492    2.4644    0.7791 S.3       1 <0>         0.0000
     23 Cl1        -3.1752    0.1061    9.2174 Cl        1 <0>         0.0000
     24 H1          1.0439   -2.3003    9.2628 H         1 <0>         0.0000
     25 H2          1.5748   -1.7550    6.9130 H         1 <0>         0.0000
     26 H3         -1.0465   -1.4855   10.2910 H         1 <0>         0.0000
     27 H4         -2.1094    0.4477    6.5897 H         1 <0>         0.0000
     28 H5         -4.3764    4.2092    0.3452 H         1 <0>         0.0000
     29 H6         -5.3650    3.2137   -0.7256 H         1 <0>         0.0000
     30 H7         -4.9604    2.6385    0.9059 H         1 <0>         0.0000
     31 H8         -2.5401    4.3441   -1.4288 H         1 <0>         0.0000
     32 H9         -3.5004    3.3505   -2.5268 H         1 <0>         0.0000
     33 H10        -1.8438    2.8672   -2.1048 H         1 <0>         0.0000
     34 H11        -0.1531    0.5335    1.9082 H         1 <0>         0.0000
     35 H12         0.7975    1.7493    1.0822 H         1 <0>         0.0000
     36 H13        -1.6176    0.2727   -0.0585 H         1 <0>         0.0000
     37 H14        -0.7009    1.4813   -0.9501 H         1 <0>         0.0000
     38 H15         2.9484    0.3859    1.4229 H         1 <0>         0.0000
     39 H16         0.5915   -1.2082    0.2610 H         1 <0>         0.0000
     40 H17        -3.5264    1.5088   -0.8227 H         1 <0>         0.0000
     41 H18         0.8845    0.1717   -1.5934 H         1 <0>         0.0000
     42 H19         2.2416   -0.6802   -1.2969 H         1 <0>         0.0000
     43 H20         2.1281   -0.4306    5.5750 H         1 <0>         0.0000
     44 H21         1.9478    0.9869    3.2798 H         1 <0>         0.0000
     45 H22         2.7041   -2.3378    0.6655 H         1 <0>         0.0000
@<TRIPOS>BOND
     1    1    2 ar
     2    1    3 ar
     3    2    5 ar
     4    3    6 ar
     5    4    5 ar
     6    4    6 ar
     7    5    7 1
     8    6   23 1
     9    7   17 am
    10    7   19 2
    11    8   13 1
    12    8   18 am
    13    8   20 2
    14    9   15 1
    15   10   15 1
    16   11   12 1
    17   11   14 1
    18   12   22 1
    19   13   14 1
    20   13   21 1
    21   14   16 1
    22   15   22 1
    23   17   18 1
    24    1   24 1
    25    2   25 1
    26    3   26 1
    27    4   27 1
    28    9   28 1
    29    9   29 1
    30    9   30 1
    31   10   31 1
    32   10   32 1
    33   10   33 1
    34   11   34 1
    35   11   35 1
    36   12   36 1
    37   12   37 1
    38   13   38 1
    39   14   39 1
    40   15   40 1
    41   16   41 1
    42   16   42 1
    43   17   43 1
    44   18   44 1
    45   21   45 1
@<TRIPOS>MOLECULE
LIGAND
   45    45     0     0     0
SMALL
NO_CHARGES

@<TRIPOS>ATOM
      1 C1         -0.8568   -0.8437    8.7635 C.ar      1 <0>         0.0000
      2 C2         -0.6134   -0.4635    7.4437 C.ar      1 <0>         0.0000
      3 C3          0.2081   -1.1727    9.6022 C.ar      1 <0>         0.0000
      4 C4          1.7598   -0.7415    7.8013 C.ar      1 <0>         0.0000
      5 C5          0.6949   -0.4125    6.9626 C.ar      1 <0>         0.0000
      6 C6          1.5164   -1.1216    9.1211 C.ar      1 <0>         0.0000
      7 C7          0.9532   -0.0081    5.5563 C.2       1 <0>         0.0000
      8 C8          1.9325   -1.0133    2.6768 C.2       1 <0>         0.0000
      9 C9         -2.8396    0.6809   -2.6742 C.3       1 <0>         0.0000
     10 C10        -4.6560   -0.1960   -1.1670 C.3       1 <0>         0.0000
     11 C11         0.2195    0.8307    0.9188 C.3       1 <0>         0.0000
     12 C12        -1.0001    1.1700    0.0549 C.3       1 <0>         0.0000
     13 C13         2.3649   -0.5352    1.2935 C.3       1 <0>         0.0000
     14 C14         1.1534   -0.2750    0.3710 C.3       1 <0>         0.0000
     15 C15        -3.3416    0.5718   -1.2395 C.3       1 <0>         0.0000
     16 N1          1.6681    0.0834   -0.9557 N.3       1 <0>         0.0000
     17 N2          2.1084   -0.5131    4.9911 N.am      1 <0>         0.0000
     18 N3          2.3999   -0.1941    3.6876 N.am      1 <0>         0.0000
     19 O1          0.1465    0.7178    4.9806 O.2       1 <0>         0.0000
     20 O2          1.2610   -2.0296    2.8442 O.2       1 <0>         0.0000
     21 O3          3.2186   -1.5159    0.7230 O.3       1 <0>         0.0000
     22 S1         -2.0977   -0.2515   -0.2193 S.3       1 <0>         0.0000
     23 Cl1         2.8299   -1.5272   10.1568 Cl        1 <0>         0.0000
     24 H1         -1.8754   -0.8830    9.1379 H         1 <0>         0.0000
     25 H2         -1.4514   -0.2096    6.7997 H         1 <0>         0.0000
     26 H3          0.0031   -1.4671   10.6283 H         1 <0>         0.0000
     27 H4          2.7794   -0.7003    7.4234 H         1 <0>         0.0000
     28 H5         -2.6847   -0.3167   -3.1002 H         1 <0>         0.0000
     29 H6         -3.5648    1.1984   -3.3121 H         1 <0>         0.0000
     30 H7         -1.8850    1.2160   -2.7338 H         1 <0>         0.0000
     31 H8         -4.5291   -1.2071   -1.5698 H         1 <0>         0.0000
     32 H9         -5.4375    0.2943   -1.7580 H         1 <0>         0.0000
     33 H10        -5.0153   -0.2952   -0.1363 H         1 <0>         0.0000
     34 H11        -0.1531    0.5335    1.9082 H         1 <0>         0.0000
     35 H12         0.7975    1.7493    1.0822 H         1 <0>         0.0000
     36 H13        -0.6573    1.5138   -0.9268 H         1 <0>         0.0000
     37 H14        -1.5832    1.9849    0.4933 H         1 <0>         0.0000
     38 H15         2.9484    0.3859    1.4229 H         1 <0>         0.0000
     39 H16         0.5915   -1.2082    0.2610 H         1 <0>         0.0000
     40 H17        -3.4899    1.5778   -0.8328 H         1 <0>         0.0000
     41 H18         0.8845    0.1717   -1.5934 H         1 <0>         0.0000
     42 H19         2.2416   -0.6802   -1.2969 H         1 <0>         0.0000
     43 H20         2.7293   -1.1081    5.5287 H         1 <0>         0.0000
     44 H21         2.9499    0.6302    3.4697 H         1 <0>         0.0000
     45 H22         2.7041   -2.3378    0.6655 H         1 <0>         0.0000
@<TRIPOS>BOND
     1    1    2 ar
     2    1    3 ar
     3    2    5 ar
     4    3    6 ar
     5    4    5 ar
     6    4    6 ar
     7    5    7 1
     8    6   23 1
     9    7   17 am
    10    7   19 2
    11    8   13 1
    12    8   18 am
    13    8   20 2
    14    9   15 1
    15   10   15 1
    16   11   12 1
    17   11   14 1
    18   12   22 1
    19   13   14 1
    20   13   21 1
    21   14   16 1
    22   15   22 1
    23   17   18 1
    24    1   24 1
    25    2   25 1
    26    3   26 1
    27    4   27 1
    28    9   28 1
    29    9   29 1
    30    9   30 1
    31   10   31 1
    32   10   32 1
    33   10   33 1
    34   11   34 1
    35   11   35 1
    36   12   36 1
    37   12   37 1
    38   13   38 1
    39   14   39 1
    40   15   40 1
    41   16   41 1
    42   16   42 1
    43   17   43 1
    44   18   44 1
    45   21   45 1
@<TRIPOS>MOLECULE
LIGAND
   45    45     0     0     0
SMALL
NO_CHARGES

@<TRIPOS>ATOM
      1 C1          2.2867   -1.8006    9.3387 C.ar      1 <0>         0.0000
      2 C2          2.7263   -1.5405    8.0408 C.ar      1 <0>         0.0000
      3 C3          1.0666   -1.2866    9.7779 C.ar      1 <0>         0.0000
      4 C4          0.7260   -0.2522    7.6213 C.ar      1 <0>         0.0000
      5 C5          1.9460   -0.7663    7.1821 C.ar      1 <0>         0.0000
      6 C6          0.2863   -0.5124    8.9192 C.ar      1 <0>         0.0000
      7 C7          2.4155   -0.4891    5.7998 C.2       1 <0>         0.0000
      8 C8          1.9325   -1.0133    2.6768 C.2       1 <0>         0.0000
      9 C9         -4.1299   -0.4675   -2.0276 C.3       1 <0>         0.0000
     10 C10        -4.2566    1.4118   -0.3565 C.3       1 <0>         0.0000
     11 C11         0.2195    0.8307    0.9188 C.3       1 <0>         0.0000
     12 C12        -1.0001    1.1700    0.0549 C.3       1 <0>         0.0000
     13 C13         2.3649   -0.5352    1.2935 C.3       1 <0>         0.0000
     14 C14         1.1534   -0.2750    0.3710 C.3       1 <0>         0.0000
     15 C15        -3.3416    0.5718   -1.2395 C.3       1 <0>         0.0000
     16 N1          1.6681    0.0834   -0.9557 N.3       1 <0>         0.0000
     17 N2          1.4238   -0.2520    4.8674 N.am      1 <0>         0.0000
     18 N3          1.7877    0.0290    3.5734 N.am      1 <0>         0.0000
     19 O1          3.6213   -0.4699    5.5658 O.2       1 <0>         0.0000
     20 O2          1.7602   -2.2018    2.9407 O.2       1 <0>         0.0000
     21 O3          3.2186   -1.5159    0.7230 O.3       1 <0>         0.0000
     22 S1         -2.0977   -0.2515   -0.2193 S.3       1 <0>         0.0000
     23 Cl1        -1.2194    0.1212    9.4617 Cl        1 <0>         0.0000
     24 H1          2.8942   -2.4037   10.0070 H         1 <0>         0.0000
     25 H2          3.6789   -1.9464    7.7100 H         1 <0>         0.0000
     26 H3          0.7369   -1.4976   10.7919 H         1 <0>         0.0000
     27 H4          0.1191    0.3510    6.9490 H         1 <0>         0.0000
     28 H5         -4.6663   -1.1363   -1.3453 H         1 <0>         0.0000
     29 H6         -4.8772    0.0053   -2.6747 H         1 <0>         0.0000
     30 H7         -3.4774   -1.0886   -2.6519 H         1 <0>         0.0000
     31 H8         -4.7949    0.7719    0.3515 H         1 <0>         0.0000
     32 H9         -5.0077    1.9429   -0.9517 H         1 <0>         0.0000
     33 H10        -3.6957    2.1500    0.2280 H         1 <0>         0.0000
     34 H11        -0.1531    0.5335    1.9082 H         1 <0>         0.0000
     35 H12         0.7975    1.7493    1.0822 H         1 <0>         0.0000
     36 H13        -0.6573    1.5138   -0.9268 H         1 <0>         0.0000
     37 H14        -1.5832    1.9849    0.4933 H         1 <0>         0.0000
     38 H15         2.9484    0.3859    1.4229 H         1 <0>         0.0000
     39 H16         0.5915   -1.2082    0.2610 H         1 <0>         0.0000
     40 H17        -2.8138    1.2291   -1.9386 H         1 <0>         0.0000
     41 H18         0.8845    0.1717   -1.5934 H         1 <0>         0.0000
     42 H19         2.2416   -0.6802   -1.2969 H         1 <0>         0.0000
     43 H20         0.4458   -0.2847    5.1337 H         1 <0>         0.0000
     44 H21         1.9478    0.9869    3.2798 H         1 <0>         0.0000
     45 H22         2.7041   -2.3378    0.6655 H         1 <0>         0.0000
@<TRIPOS>BOND
     1    1    2 ar
     2    1    3 ar
     3    2    5 ar
     4    3    6 ar
     5    4    5 ar
     6    4    6 ar
     7    5    7 1
     8    6   23 1
     9    7   17 am
    10    7   19 2
    11    8   13 1
    12    8   18 am
    13    8   20 2
    14    9   15 1
    15   10   15 1
    16   11   12 1
    17   11   14 1
    18   12   22 1
    19   13   14 1
    20   13   21 1
    21   14   16 1
    22   15   22 1
    23   17   18 1
    24    1   24 1
    25    2   25 1
    26    3   26 1
    27    4   27 1
    28    9   28 1
    29    9   29 1
    30    9   30 1
    31   10   31 1
    32   10   32 1
    33   10   33 1
    34   11   34 1
    35   11   35 1
    36   12   36 1
    37   12   37 1
    38   13   38 1
    39   14   39 1
    40   15   40 1
    41   16   41 1
    42   16   42 1
    43   17   43 1
    44   18   44 1
    45   21   45 1
@<TRIPOS>MOLECULE
LIGAND
   45    45     0     0     0
SMALL
NO_CHARGES

@<TRIPOS>ATOM
      1 C1         -1.7508   -1.5308    8.2465 C.ar      1 <0>         0.0000
      2 C2         -1.4530   -1.2202    6.9197 C.ar      1 <0>         0.0000
      3 C3         -0.8322   -1.2379    9.2545 C.ar      1 <0>         0.0000
      4 C4          0.6821   -0.3238    7.6089 C.ar      1 <0>         0.0000
      5 C5         -0.2366   -0.6167    6.6009 C.ar      1 <0>         0.0000
      6 C6          0.3843   -0.6344    8.9357 C.ar      1 <0>         0.0000
      7 C7          0.0801   -0.2867    5.1871 C.2       1 <0>         0.0000
      8 C8          1.9325   -1.0133    2.6768 C.2       1 <0>         0.0000
      9 C9         -4.2967    1.3927   -0.3375 C.3       1 <0>         0.0000
     10 C10        -4.0071    3.8901   -0.4781 C.3       1 <0>         0.0000
     11 C11         0.2195    0.8307    0.9188 C.3       1 <0>         0.0000
     12 C12        -1.0001    1.1700    0.0549 C.3       1 <0>         0.0000
     13 C13         2.3649   -0.5352    1.2935 C.3       1 <0>         0.0000
     14 C14         1.1534   -0.2750    0.3710 C.3       1 <0>         0.0000
     15 C15        -3.3066    2.5373   -0.5169 C.3       1 <0>         0.0000
     16 N1          1.6681    0.0834   -0.9557 N.3       1 <0>         0.0000
     17 N2          1.4238   -0.2520    4.8674 N.am      1 <0>         0.0000
     18 N3          1.7877    0.0290    3.5734 N.am      1 <0>         0.0000
     19 O1         -0.8375   -0.0833    4.3961 O.2       1 <0>         0.0000
     20 O2          1.7602   -2.2018    2.9407 O.2       1 <0>         0.0000
     21 O3          3.2186   -1.5159    0.7230 O.3       1 <0>         0.0000
     22 S1         -2.0492    2.4644    0.7791 S.3       1 <0>         0.0000
     23 Cl1         1.5171   -0.2728   10.1801 Cl        1 <0>         0.0000
     24 H1         -2.6981   -2.0004    8.4946 H         1 <0>         0.0000
     25 H2         -2.1768   -1.4534    6.1430 H         1 <0>         0.0000
     26 H3         -1.0781   -1.4858   10.2839 H         1 <0>         0.0000
     27 H4          1.6301    0.1476    7.3573 H         1 <0>         0.0000
     28 H5         -4.8186    1.4878    0.6213 H         1 <0>         0.0000
     29 H6         -5.0586    1.3975   -1.1249 H         1 <0>         0.0000
     30 H7         -3.7990    0.4164   -0.3457 H         1 <0>         0.0000
     31 H8         -4.5245    4.0235    0.4785 H         1 <0>         0.0000
     32 H9         -4.7599    3.9723   -1.2700 H         1 <0>         0.0000
     33 H10        -3.2998    4.7201   -0.5881 H         1 <0>         0.0000
     34 H11        -0.1531    0.5335    1.9082 H         1 <0>         0.0000
     35 H12         0.7975    1.7493    1.0822 H         1 <0>         0.0000
     36 H13        -1.6176    0.2727   -0.0585 H         1 <0>         0.0000
     37 H14        -0.7009    1.4813   -0.9501 H         1 <0>         0.0000
     38 H15         2.9484    0.3859    1.4229 H         1 <0>         0.0000
     39 H16         0.5915   -1.2082    0.2610 H         1 <0>         0.0000
     40 H17        -2.7965    2.4239   -1.4795 H         1 <0>         0.0000
     41 H18         0.8845    0.1717   -1.5934 H         1 <0>         0.0000
     42 H19         2.2416   -0.6802   -1.2969 H         1 <0>         0.0000
     43 H20         2.1281   -0.4306    5.5750 H         1 <0>         0.0000
     44 H21         1.9478    0.9869    3.2798 H         1 <0>         0.0000
     45 H22         2.7041   -2.3378    0.6655 H         1 <0>         0.0000
@<TRIPOS>BOND
     1    1    2 ar
     2    1    3 ar
     3    2    5 ar
     4    3    6 ar
     5    4    5 ar
     6    4    6 ar
     7    5    7 1
     8    6   23 1
     9    7   17 am
    10    7   19 2
    11    8   13 1
    12    8   18 am
    13    8   20 2
    14    9   15 1
    15   10   15 1
    16   11   12 1
    17   11   14 1
    18   12   22 1
    19   13   14 1
    20   13   21 1
    21   14   16 1
    22   15   22 1
    23   17   18 1
    24    1   24 1
    25    2   25 1
    26    3   26 1
    27    4   27 1
    28    9   28 1
    29    9   29 1
    30    9   30 1
    31   10   31 1
    32   10   32 1
    33   10   33 1
    34   11   34 1
    35   11   35 1
    36   12   36 1
    37   12   37 1
    38   13   38 1
    39   14   39 1
    40   15   40 1
    41   16   41 1
    42   16   42 1
    43   17   43 1
    44   18   44 1
    45   21   45 1
@<TRIPOS>MOLECULE
LIGAND
   45    45     0     0     0
SMALL
NO_CHARGES

@<TRIPOS>ATOM
      1 C1          1.3691   -2.5452    8.7036 C.ar      1 <0>         0.0000
      2 C2          1.5963   -2.0804    7.4082 C.ar      1 <0>         0.0000
      3 C3          1.1963   -1.6386    9.7496 C.ar      1 <0>         0.0000
      4 C4          1.4779    0.1975    8.2048 C.ar      1 <0>         0.0000
      5 C5          1.6507   -0.7090    7.1588 C.ar      1 <0>         0.0000
      6 C6          1.2507   -0.2673    9.5002 C.ar      1 <0>         0.0000
      7 C7          1.8934   -0.2148    5.7787 C.2       1 <0>         0.0000
      8 C8          1.9325   -1.0133    2.6768 C.2       1 <0>         0.0000
      9 C9          0.9992    5.4655    0.4702 C.3       1 <0>         0.0000
     10 C10         0.2949    5.8734    2.8530 C.3       1 <0>         0.0000
     11 C11         0.2195    0.8307    0.9188 C.3       1 <0>         0.0000
     12 C12         0.8590    2.2074    1.1305 C.3       1 <0>         0.0000
     13 C13         2.3649   -0.5352    1.2935 C.3       1 <0>         0.0000
     14 C14         1.1534   -0.2750    0.3710 C.3       1 <0>         0.0000
     15 C15         0.8241    4.8515    1.8540 C.3       1 <0>         0.0000
     16 N1          1.6681    0.0834   -0.9557 N.3       1 <0>         0.0000
     17 N2          2.6023   -1.0670    4.9540 N.am      1 <0>         0.0000
     18 N3          2.8469   -0.6810    3.6590 N.am      1 <0>         0.0000
     19 O1          1.4534    0.8829    5.4461 O.2       1 <0>         0.0000
     20 O2          0.8915   -1.6405    2.8632 O.2       1 <0>         0.0000
     21 O3          3.2186   -1.5159    0.7230 O.3       1 <0>         0.0000
     22 S1         -0.3102    3.4478    1.7590 S.3       1 <0>         0.0000
     23 Cl1         1.0368    0.8507   10.7913 Cl        1 <0>         0.0000
     24 H1          1.3265   -3.6129    8.8975 H         1 <0>         0.0000
     25 H2          1.7296   -2.7965    6.6014 H         1 <0>         0.0000
     26 H3          1.0200   -2.0156   10.7537 H         1 <0>         0.0000
     27 H4          1.5203    1.2667    8.0072 H         1 <0>         0.0000
     28 H5          0.0422    5.8509    0.1009 H         1 <0>         0.0000
     29 H6          1.7019    6.3059    0.4928 H         1 <0>         0.0000
     30 H7          1.3622    4.7326   -0.2594 H         1 <0>         0.0000
     31 H8         -0.6729    6.2651    2.5204 H         1 <0>         0.0000
     32 H9          0.9758    6.7263    2.9496 H         1 <0>         0.0000
     33 H10         0.1486    5.4355    3.8470 H         1 <0>         0.0000
     34 H11        -0.6259    0.9652    0.2307 H         1 <0>         0.0000
     35 H12        -0.2197    0.5004    1.8688 H         1 <0>         0.0000
     36 H13         1.2423    2.5738    0.1722 H         1 <0>         0.0000
     37 H14         1.7108    2.1489    1.8142 H         1 <0>         0.0000
     38 H15         2.9484    0.3859    1.4229 H         1 <0>         0.0000
     39 H16         0.5915   -1.2082    0.2610 H         1 <0>         0.0000
     40 H17         1.7903    4.4730    2.2043 H         1 <0>         0.0000
     41 H18         0.8845    0.1717   -1.5934 H         1 <0>         0.0000
     42 H19         2.2416   -0.6802   -1.2969 H         1 <0>         0.0000
     43 H20         2.9356   -1.9607    5.2985 H         1 <0>         0.0000
     44 H21         3.6858   -0.1599    3.4266 H         1 <0>         0.0000
     45 H22         2.7041   -2.3378    0.6655 H         1 <0>         0.0000
@<TRIPOS>BOND
     1    1    2 ar
     2    1    3 ar
     3    2    5 ar
     4    3    6 ar
     5    4    5 ar
     6    4    6 ar
     7    5    7 1
     8    6   23 1
     9    7   17 am
    10    7   19 2
    11    8   13 1
    12    8   18 am
    13    8   20 2
    14    9   15 1
    15   10   15 1
    16   11   12 1
    17   11   14 1
    18   12   22 1
    19   13   14 1
    20   13   21 1
    21   14   16 1
    22   15   22 1
    23   17   18 1
    24    1   24 1
    25    2   25 1
    26    3   26 1
    27    4   27 1
    28    9   28 1
    29    9   29 1
    30    9   30 1
    31   10   31 1
    32   10   32 1
    33   10   33 1
    34   11   34 1
    35   11   35 1
    36   12   36 1
    37   12   37 1
    38   13   38 1
    39   14   39 1
    40   15   40 1
    41   16   41 1
    42   16   42 1
    43   17   43 1
    44   18   44 1
    45   21   45 1
@<TRIPOS>MOLECULE
LIGAND
   45    45     0     0     0
SMALL
NO_CHARGES

@<TRIPOS>ATOM
      1 C1          3.3674   -3.8174    8.8247 C.ar      1 <0>         0.0000
      2 C2          3.6347   -3.4983    7.4934 C.ar      1 <0>         0.0000
      3 C3          2.2539   -3.2710    9.4629 C.ar      1 <0>         0.0000
      4 C4          1.6751   -2.0863    7.4384 C.ar      1 <0>         0.0000
      5 C5          2.7886   -2.6327    6.8003 C.ar      1 <0>         0.0000
      6 C6          1.4078   -2.4054    8.7697 C.ar      1 <0>         0.0000
      7 C7          3.0744   -2.2928    5.3823 C.2       1 <0>         0.0000
      8 C8          1.9325   -1.0133    2.6768 C.2       1 <0>         0.0000
      9 C9         -2.8396    0.6809   -2.6742 C.3       1 <0>         0.0000
     10 C10        -4.6560   -0.1960   -1.1670 C.3       1 <0>         0.0000
     11 C11         0.2195    0.8307    0.9188 C.3       1 <0>         0.0000
     12 C12        -1.0001    1.1700    0.0549 C.3       1 <0>         0.0000
     13 C13         2.3649   -0.5352    1.2935 C.3       1 <0>         0.0000
     14 C14         1.1534   -0.2750    0.3710 C.3       1 <0>         0.0000
     15 C15        -3.3416    0.5718   -1.2395 C.3       1 <0>         0.0000
     16 N1          1.6681    0.0834   -0.9557 N.3       1 <0>         0.0000
     17 N2          2.6023   -1.0670    4.9540 N.am      1 <0>         0.0000
     18 N3          2.8469   -0.6810    3.6590 N.am      1 <0>         0.0000
     19 O1          3.7083   -3.0847    4.6892 O.2       1 <0>         0.0000
     20 O2          0.8915   -1.6405    2.8632 O.2       1 <0>         0.0000
     21 O3          3.2186   -1.5159    0.7230 O.3       1 <0>         0.0000
     22 S1         -2.0977   -0.2515   -0.2193 S.3       1 <0>         0.0000
     23 Cl1         0.0337   -1.7319    9.5577 Cl        1 <0>         0.0000
     24 H1          4.0262   -4.4916    9.3641 H         1 <0>         0.0000
     25 H2          4.5055   -3.9303    7.0070 H         1 <0>         0.0000
     26 H3          2.0583   -3.5288   10.5005 H         1 <0>         0.0000
     27 H4          1.0164   -1.4117    6.8951 H         1 <0>         0.0000
     28 H5         -2.6847   -0.3167   -3.1002 H         1 <0>         0.0000
     29 H6         -3.5648    1.1984   -3.3121 H         1 <0>         0.0000
     30 H7         -1.8850    1.2160   -2.7338 H         1 <0>         0.0000
     31 H8         -4.5291   -1.2071   -1.5698 H         1 <0>         0.0000
     32 H9         -5.4375    0.2943   -1.7580 H         1 <0>         0.0000
     33 H10        -5.0153   -0.2952   -0.1363 H         1 <0>         0.0000
     34 H11        -0.1531    0.5335    1.9082 H         1 <0>         0.0000
     35 H12         0.7975    1.7493    1.0822 H         1 <0>         0.0000
     36 H13        -0.6573    1.5138   -0.9268 H         1 <0>         0.0000
     37 H14        -1.5832    1.9849    0.4933 H         1 <0>         0.0000
     38 H15         2.9484    0.3859    1.4229 H         1 <0>         0.0000
     39 H16         0.5915   -1.2082    0.2610 H         1 <0>         0.0000
     40 H17        -3.4899    1.5778   -0.8328 H         1 <0>         0.0000
     41 H18         0.8845    0.1717   -1.5934 H         1 <0>         0.0000
     42 H19         2.2416   -0.6802   -1.2969 H         1 <0>         0.0000
     43 H20         2.0849   -0.4638    5.5841 H         1 <0>         0.0000
     44 H21         3.6858   -0.1599    3.4266 H         1 <0>         0.0000
     45 H22         2.7041   -2.3378    0.6655 H         1 <0>         0.0000
@<TRIPOS>BOND
     1    1    2 ar
     2    1    3 ar
     3    2    5 ar
     4    3    6 ar
     5    4    5 ar
     6    4    6 ar
     7    5    7 1
     8    6   23 1
     9    7   17 am
    10    7   19 2
    11    8   13 1
    12    8   18 am
    13    8   20 2
    14    9   15 1
    15   10   15 1
    16   11   12 1
    17   11   14 1
    18   12   22 1
    19   13   14 1
    20   13   21 1
    21   14   16 1
    22   15   22 1
    23   17   18 1
    24    1   24 1
    25    2   25 1
    26    3   26 1
    27    4   27 1
    28    9   28 1
    29    9   29 1
    30    9   30 1
    31   10   31 1
    32   10   32 1
    33   10   33 1
    34   11   34 1
    35   11   35 1
    36   12   36 1
    37   12   37 1
    38   13   38 1
    39   14   39 1
    40   15   40 1
    41   16   41 1
    42   16   42 1
    43   17   43 1
    44   18   44 1
    45   21   45 1
@<TRIPOS>MOLECULE
LIGAND
   45    45     0     0     0
SMALL
NO_CHARGES

@<TRIPOS>ATOM
      1 C1          0.2436   -1.5853    8.6879 C.ar      1 <0>         0.0000
      2 C2          0.6848   -1.3243    7.3907 C.ar      1 <0>         0.0000
      3 C3          1.0636   -1.2882    9.7766 C.ar      1 <0>         0.0000
      4 C4          2.7661   -0.4692    8.2707 C.ar      1 <0>         0.0000
      5 C5          1.9460   -0.7663    7.1821 C.ar      1 <0>         0.0000
      6 C6          2.3248   -0.7302    9.5679 C.ar      1 <0>         0.0000
      7 C7          2.4155   -0.4891    5.7998 C.2       1 <0>         0.0000
      8 C8          1.9325   -1.0133    2.6768 C.2       1 <0>         0.0000
      9 C9         -1.3566    4.2423   -1.1718 C.3       1 <0>         0.0000
     10 C10        -1.3823    5.0762    1.2040 C.3       1 <0>         0.0000
     11 C11         0.2195    0.8307    0.9188 C.3       1 <0>         0.0000
     12 C12        -1.0001    1.1700    0.0549 C.3       1 <0>         0.0000
     13 C13         2.3649   -0.5352    1.2935 C.3       1 <0>         0.0000
     14 C14         1.1534   -0.2750    0.3710 C.3       1 <0>         0.0000
     15 C15        -1.0699    3.9009    0.2855 C.3       1 <0>         0.0000
     16 N1          1.6681    0.0834   -0.9557 N.3       1 <0>         0.0000
     17 N2          1.4238   -0.2520    4.8674 N.am      1 <0>         0.0000
     18 N3          1.7877    0.0290    3.5734 N.am      1 <0>         0.0000
     19 O1          3.6213   -0.4699    5.5658 O.2       1 <0>         0.0000
     20 O2          1.7602   -2.2018    2.9407 O.2       1 <0>         0.0000
     21 O3          3.2186   -1.5159    0.7230 O.3       1 <0>         0.0000
     22 S1         -2.0492    2.4644    0.7791 S.3       1 <0>         0.0000
     23 Cl1         3.3359   -0.3635   10.9117 Cl        1 <0>         0.0000
     24 H1         -0.7386   -2.0195    8.8502 H         1 <0>         0.0000
     25 H2          0.0368   -1.5602    6.5505 H         1 <0>         0.0000
     26 H3          0.7063   -1.4972   10.7816 H         1 <0>         0.0000
     27 H4          3.7493   -0.0335    8.1049 H         1 <0>         0.0000
     28 H5         -2.4105    4.5137   -1.2989 H         1 <0>         0.0000
     29 H6         -0.7576    5.0967   -1.5064 H         1 <0>         0.0000
     30 H7         -1.1520    3.3963   -1.8378 H         1 <0>         0.0000
     31 H8         -2.4367    5.3604    1.1134 H         1 <0>         0.0000
     32 H9         -0.7841    5.9563    0.9431 H         1 <0>         0.0000
     33 H10        -1.1964    4.8333    2.2564 H         1 <0>         0.0000
     34 H11        -0.1531    0.5335    1.9082 H         1 <0>         0.0000
     35 H12         0.7975    1.7493    1.0822 H         1 <0>         0.0000
     36 H13        -1.6176    0.2727   -0.0585 H         1 <0>         0.0000
     37 H14        -0.7009    1.4813   -0.9501 H         1 <0>         0.0000
     38 H15         2.9484    0.3859    1.4229 H         1 <0>         0.0000
     39 H16         0.5915   -1.2082    0.2610 H         1 <0>         0.0000
     40 H17        -0.0132    3.6330    0.3910 H         1 <0>         0.0000
     41 H18         0.8845    0.1717   -1.5934 H         1 <0>         0.0000
     42 H19         2.2416   -0.6802   -1.2969 H         1 <0>         0.0000
     43 H20         0.4458   -0.2847    5.1337 H         1 <0>         0.0000
     44 H21         1.9478    0.9869    3.2798 H         1 <0>         0.0000
     45 H22         2.7041   -2.3378    0.6655 H         1 <0>         0.0000
@<TRIPOS>BOND
     1    1    2 ar
     2    1    3 ar
     3    2    5 ar
     4    3    6 ar
     5    4    5 ar
     6    4    6 ar
     7    5    7 1
     8    6   23 1
     9    7   17 am
    10    7   19 2
    11    8   13 1
    12    8   18 am
    13    8   20 2
    14    9   15 1
    15   10   15 1
    16   11   12 1
    17   11   14 1
    18   12   22 1
    19   13   14 1
    20   13   21 1
    21   14   16 1
    22   15   22 1
    23   17   18 1
    24    1   24 1
    25    2   25 1
    26    3   26 1
    27    4   27 1
    28    9   28 1
    29    9   29 1
    30    9   30 1
    31   10   31 1
    32   10   32 1
    33   10   33 1
    34   11   34 1
    35   11   35 1
    36   12   36 1
    37   12   37 1
    38   13   38 1
    39   14   39 1
    40   15   40 1
    41   16   41 1
    42   16   42 1
    43   17   43 1
    44   18   44 1
    45   21   45 1
@<TRIPOS>MOLECULE
LIGAND
   45    45     0     0     0
SMALL
NO_CHARGES

@<TRIPOS>ATOM
      1 C1         -0.1690   -1.4033    8.5959 C.ar      1 <0>         0.0000
      2 C2          0.1811   -1.0431    7.2947 C.ar      1 <0>         0.0000
      3 C3         -0.3818   -0.4171    9.5593 C.ar      1 <0>         0.0000
      4 C4          0.1059    1.2894    7.9200 C.ar      1 <0>         0.0000
      5 C5          0.3186    0.3032    6.9567 C.ar      1 <0>         0.0000
      6 C6         -0.2443    0.9292    9.2213 C.ar      1 <0>         0.0000
      7 C7          0.6923    0.6859    5.5704 C.2       1 <0>         0.0000
      8 C8          1.9325   -1.0133    2.6768 C.2       1 <0>         0.0000
      9 C9         -4.5752    3.1779    0.0331 C.3       1 <0>         0.0000
     10 C10        -2.7668    3.3107   -1.7140 C.3       1 <0>         0.0000
     11 C11         0.2195    0.8307    0.9188 C.3       1 <0>         0.0000
     12 C12        -1.0001    1.1700    0.0549 C.3       1 <0>         0.0000
     13 C13         2.3649   -0.5352    1.2935 C.3       1 <0>         0.0000
     14 C14         1.1534   -0.2750    0.3710 C.3       1 <0>         0.0000
     15 C15        -3.3066    2.5373   -0.5169 C.3       1 <0>         0.0000
     16 N1          1.6681    0.0834   -0.9557 N.3       1 <0>         0.0000
     17 N2          1.4238   -0.2520    4.8674 N.am      1 <0>         0.0000
     18 N3          1.7877    0.0290    3.5734 N.am      1 <0>         0.0000
     19 O1          0.3313    1.7736    5.1279 O.2       1 <0>         0.0000
     20 O2          1.7602   -2.2018    2.9407 O.2       1 <0>         0.0000
     21 O3          3.2186   -1.5159    0.7230 O.3       1 <0>         0.0000
     22 S1         -2.0492    2.4644    0.7791 S.3       1 <0>         0.0000
     23 Cl1        -0.5074    2.1455   10.4103 Cl        1 <0>         0.0000
     24 H1         -0.2763   -2.4515    8.8588 H         1 <0>         0.0000
     25 H2          0.3444   -1.8206    6.5528 H         1 <0>         0.0000
     26 H3         -0.6541   -0.7128   10.5691 H         1 <0>         0.0000
     27 H4          0.2134    2.3388    7.6534 H         1 <0>         0.0000
     28 H5         -4.3764    4.2092    0.3452 H         1 <0>         0.0000
     29 H6         -5.3650    3.2137   -0.7256 H         1 <0>         0.0000
     30 H7         -4.9604    2.6385    0.9059 H         1 <0>         0.0000
     31 H8         -2.5401    4.3441   -1.4288 H         1 <0>         0.0000
     32 H9         -3.5004    3.3505   -2.5268 H         1 <0>         0.0000
     33 H10        -1.8438    2.8672   -2.1048 H         1 <0>         0.0000
     34 H11        -0.1531    0.5335    1.9082 H         1 <0>         0.0000
     35 H12         0.7975    1.7493    1.0822 H         1 <0>         0.0000
     36 H13        -1.6176    0.2727   -0.0585 H         1 <0>         0.0000
     37 H14        -0.7009    1.4813   -0.9501 H         1 <0>         0.0000
     38 H15         2.9484    0.3859    1.4229 H         1 <0>         0.0000
     39 H16         0.5915   -1.2082    0.2610 H         1 <0>         0.0000
     40 H17        -3.5264    1.5088   -0.8227 H         1 <0>         0.0000
     41 H18         0.8845    0.1717   -1.5934 H         1 <0>         0.0000
     42 H19         2.2416   -0.6802   -1.2969 H         1 <0>         0.0000
     43 H20         1.6871   -1.1312    5.2989 H         1 <0>         0.0000
     44 H21         1.9478    0.9869    3.2798 H         1 <0>         0.0000
     45 H22         2.7041   -2.3378    0.6655 H         1 <0>         0.0000
@<TRIPOS>BOND
     1    1    2 ar
     2    1    3 ar
     3    2    5 ar
     4    3    6 ar
     5    4    5 ar
     6    4    6 ar
     7    5    7 1
     8    6   23 1
     9    7   17 am
    10    7   19 2
    11    8   13 1
    12    8   18 am
    13    8   20 2
    14    9   15 1
    15   10   15 1
    16   11   12 1
    17   11   14 1
    18   12   22 1
    19   13   14 1
    20   13   21 1
    21   14   16 1
    22   15   22 1
    23   17   18 1
    24    1   24 1
    25    2   25 1
    26    3   26 1
    27    4   27 1
    28    9   28 1
    29    9   29 1
    30    9   30 1
    31   10   31 1
    32   10   32 1
    33   10   33 1
    34   11   34 1
    35   11   35 1
    36   12   36 1
    37   12   37 1
    38   13   38 1
    39   14   39 1
    40   15   40 1
    41   16   41 1
    42   16   42 1
    43   17   43 1
    44   18   44 1
    45   21   45 1
@<TRIPOS>MOLECULE
LIGAND
   45    45     0     0     0
SMALL
NO_CHARGES

@<TRIPOS>ATOM
      1 C1         -0.2959   -1.7283    8.4655 C.ar      1 <0>         0.0000
      2 C2          0.0807   -1.4558    7.1504 C.ar      1 <0>         0.0000
      3 C3         -1.6473   -1.8121    8.8008 C.ar      1 <0>         0.0000
      4 C4         -2.2454   -1.3505    6.5060 C.ar      1 <0>         0.0000
      5 C5         -0.8940   -1.2668    6.1707 C.ar      1 <0>         0.0000
      6 C6         -2.6221   -1.6232    7.8211 C.ar      1 <0>         0.0000
      7 C7         -0.4919   -0.9759    4.7701 C.2       1 <0>         0.0000
      8 C8          1.9325   -1.0133    2.6768 C.2       1 <0>         0.0000
      9 C9          2.1016    5.5550   -0.7655 C.3       1 <0>         0.0000
     10 C10         3.8195    4.0640    0.3143 C.3       1 <0>         0.0000
     11 C11         1.5761    0.1765   -1.0474 C.3       1 <0>         0.0000
     12 C12         2.3784    1.4800   -1.1273 C.3       1 <0>         0.0000
     13 C13         2.3649   -0.5352    1.2935 C.3       1 <0>         0.0000
     14 C14         1.1534   -0.2750    0.3710 C.3       1 <0>         0.0000
     15 C15         2.7418    4.1721   -0.7577 C.3       1 <0>         0.0000
     16 N1          0.3597   -1.5080    0.3138 N.3       1 <0>         0.0000
     17 N2          0.7320   -0.3536    4.6161 N.am      1 <0>         0.0000
     18 N3          1.1743   -0.0714    3.3469 N.am      1 <0>         0.0000
     19 O1         -1.2351   -1.3059    3.8493 O.2       1 <0>         0.0000
     20 O2          2.2555   -2.1109    3.1269 O.2       1 <0>         0.0000
     21 O3          3.2186   -1.5159    0.7230 O.3       1 <0>         0.0000
     22 S1          1.4741    2.9151   -0.4766 S.3       1 <0>         0.0000
     23 Cl1        -4.2894   -1.7271    8.2355 Cl        1 <0>         0.0000
     24 H1          0.4631   -1.8757    9.2280 H         1 <0>         0.0000
     25 H2          1.1369   -1.3929    6.9013 H         1 <0>         0.0000
     26 H3         -1.9258   -2.0251    9.8297 H         1 <0>         0.0000
     27 H4         -3.0036   -1.2033    5.7395 H         1 <0>         0.0000
     28 H5          1.6476    5.7697    0.2083 H         1 <0>         0.0000
     29 H6          2.8444    6.3372   -0.9581 H         1 <0>         0.0000
     30 H7          1.3123    5.6360   -1.5215 H         1 <0>         0.0000
     31 H8          3.3919    4.2558    1.3048 H         1 <0>         0.0000
     32 H9          4.6156    4.7998    0.1551 H         1 <0>         0.0000
     33 H10         4.2729    3.0665    0.3392 H         1 <0>         0.0000
     34 H11         2.1843   -0.6108   -1.5125 H         1 <0>         0.0000
     35 H12         0.6847    0.2765   -1.6798 H         1 <0>         0.0000
     36 H13         2.6151    1.6893   -2.1758 H         1 <0>         0.0000
     37 H14         3.3304    1.3937   -0.5957 H         1 <0>         0.0000
     38 H15         2.9484    0.3859    1.4229 H         1 <0>         0.0000
     39 H16         0.5249    0.4957    0.8291 H         1 <0>         0.0000
     40 H17         3.1890    3.9773   -1.7383 H         1 <0>         0.0000
     41 H18        -0.4842   -1.3249   -0.2178 H         1 <0>         0.0000
     42 H19         0.0690   -1.7492    1.2550 H         1 <0>         0.0000
     43 H20         1.2931   -0.1098    5.4249 H         1 <0>         0.0000
     44 H21         0.9480    0.8148    2.9078 H         1 <0>         0.0000
     45 H22         2.7041   -2.3378    0.6655 H         1 <0>         0.0000
@<TRIPOS>BOND
     1    1    2 ar
     2    1    3 ar
     3    2    5 ar
     4    3    6 ar
     5    4    5 ar
     6    4    6 ar
     7    5    7 1
     8    6   23 1
     9    7   17 am
    10    7   19 2
    11    8   13 1
    12    8   18 am
    13    8   20 2
    14    9   15 1
    15   10   15 1
    16   11   12 1
    17   11   14 1
    18   12   22 1
    19   13   14 1
    20   13   21 1
    21   14   16 1
    22   15   22 1
    23   17   18 1
    24    1   24 1
    25    2   25 1
    26    3   26 1
    27    4   27 1
    28    9   28 1
    29    9   29 1
    30    9   30 1
    31   10   31 1
    32   10   32 1
    33   10   33 1
    34   11   34 1
    35   11   35 1
    36   12   36 1
    37   12   37 1
    38   13   38 1
    39   14   39 1
    40   15   40 1
    41   16   41 1
    42   16   42 1
    43   17   43 1
    44   18   44 1
    45   21   45 1
@<TRIPOS>MOLECULE
LIGAND
   45    45     0     0     0
SMALL
NO_CHARGES

@<TRIPOS>ATOM
      1 C1          0.6321   -1.4924    8.8155 C.ar      1 <0>         0.0000
      2 C2          0.9476   -1.0964    7.5158 C.ar      1 <0>         0.0000
      3 C3          1.0220   -0.7046    9.8987 C.ar      1 <0>         0.0000
      4 C4          2.0429    0.8750    8.3822 C.ar      1 <0>         0.0000
      5 C5          1.6530    0.0872    7.2991 C.ar      1 <0>         0.0000
      6 C6          1.7274    0.4791    9.6820 C.ar      1 <0>         0.0000
      7 C7          1.9892    0.5079    5.9143 C.2       1 <0>         0.0000
      8 C8          1.9325   -1.0133    2.6768 C.2       1 <0>         0.0000
      9 C9          0.0309    6.1524    1.8816 C.3       1 <0>         0.0000
     10 C10         1.7102    4.7140    3.0862 C.3       1 <0>         0.0000
     11 C11         0.2195    0.8307    0.9188 C.3       1 <0>         0.0000
     12 C12         0.8590    2.2074    1.1305 C.3       1 <0>         0.0000
     13 C13         2.3649   -0.5352    1.2935 C.3       1 <0>         0.0000
     14 C14         1.1534   -0.2750    0.3710 C.3       1 <0>         0.0000
     15 C15         0.8241    4.8515    1.8540 C.3       1 <0>         0.0000
     16 N1          1.6681    0.0834   -0.9557 N.3       1 <0>         0.0000
     17 N2          2.1084   -0.5131    4.9911 N.am      1 <0>         0.0000
     18 N3          2.3999   -0.1941    3.6876 N.am      1 <0>         0.0000
     19 O1          2.1244    1.7030    5.6640 O.2       1 <0>         0.0000
     20 O2          1.2610   -2.0296    2.8442 O.2       1 <0>         0.0000
     21 O3          3.2186   -1.5159    0.7230 O.3       1 <0>         0.0000
     22 S1         -0.3102    3.4478    1.7590 S.3       1 <0>         0.0000
     23 Cl1         2.2078    1.4509   11.0189 Cl        1 <0>         0.0000
     24 H1          0.0826   -2.4138    8.9840 H         1 <0>         0.0000
     25 H2          0.6384   -1.7188    6.6799 H         1 <0>         0.0000
     26 H3          0.7691   -1.0259   10.9058 H         1 <0>         0.0000
     27 H4          2.5926    1.7982    8.2102 H         1 <0>         0.0000
     28 H5         -0.6040    6.1923    2.7738 H         1 <0>         0.0000
     29 H6          0.6947    7.0236    1.9150 H         1 <0>         0.0000
     30 H7         -0.6232    6.2512    1.0077 H         1 <0>         0.0000
     31 H8          1.1011    4.7317    3.9969 H         1 <0>         0.0000
     32 H9          2.4261    5.5404    3.1569 H         1 <0>         0.0000
     33 H10         2.2708    3.7722    3.0836 H         1 <0>         0.0000
     34 H11        -0.6259    0.9652    0.2307 H         1 <0>         0.0000
     35 H12        -0.2197    0.5004    1.8688 H         1 <0>         0.0000
     36 H13         1.2423    2.5738    0.1722 H         1 <0>         0.0000
     37 H14         1.7108    2.1489    1.8142 H         1 <0>         0.0000
     38 H15         2.9484    0.3859    1.4229 H         1 <0>         0.0000
     39 H16         0.5915   -1.2082    0.2610 H         1 <0>         0.0000
     40 H17         1.4510    4.8315    0.9561 H         1 <0>         0.0000
     41 H18         0.8845    0.1717   -1.5934 H         1 <0>         0.0000
     42 H19         2.2416   -0.6802   -1.2969 H         1 <0>         0.0000
     43 H20         1.9830   -1.4798    5.2709 H         1 <0>         0.0000
     44 H21         2.9499    0.6302    3.4697 H         1 <0>         0.0000
     45 H22         2.7041   -2.3378    0.6655 H         1 <0>         0.0000
@<TRIPOS>BOND
     1    1    2 ar
     2    1    3 ar
     3    2    5 ar
     4    3    6 ar
     5    4    5 ar
     6    4    6 ar
     7    5    7 1
     8    6   23 1
     9    7   17 am
    10    7   19 2
    11    8   13 1
    12    8   18 am
    13    8   20 2
    14    9   15 1
    15   10   15 1
    16   11   12 1
    17   11   14 1
    18   12   22 1
    19   13   14 1
    20   13   21 1
    21   14   16 1
    22   15   22 1
    23   17   18 1
    24    1   24 1
    25    2   25 1
    26    3   26 1
    27    4   27 1
    28    9   28 1
    29    9   29 1
    30    9   30 1
    31   10   31 1
    32   10   32 1
    33   10   33 1
    34   11   34 1
    35   11   35 1
    36   12   36 1
    37   12   37 1
    38   13   38 1
    39   14   39 1
    40   15   40 1
    41   16   41 1
    42   16   42 1
    43   17   43 1
    44   18   44 1
    45   21   45 1
@<TRIPOS>MOLECULE
LIGAND
   45    45     0     0     0
SMALL
NO_CHARGES

@<TRIPOS>ATOM
      1 C1          0.2838   -0.5121    8.9168 C.ar      1 <0>         0.0000
      2 C2          0.7255   -0.2519    7.6195 C.ar      1 <0>         0.0000
      3 C3          1.0627   -1.2866    9.7766 C.ar      1 <0>         0.0000
      4 C4          2.7249   -1.5408    8.0419 C.ar      1 <0>         0.0000
      5 C5          1.9460   -0.7663    7.1821 C.ar      1 <0>         0.0000
      6 C6          2.2832   -1.8009    9.3391 C.ar      1 <0>         0.0000
      7 C7          2.4155   -0.4891    5.7998 C.2       1 <0>         0.0000
      8 C8          1.9325   -1.0133    2.6768 C.2       1 <0>         0.0000
      9 C9         -1.3566    4.2423   -1.1718 C.3       1 <0>         0.0000
     10 C10        -1.3823    5.0762    1.2040 C.3       1 <0>         0.0000
     11 C11         0.2195    0.8307    0.9188 C.3       1 <0>         0.0000
     12 C12        -1.0001    1.1700    0.0549 C.3       1 <0>         0.0000
     13 C13         2.3649   -0.5352    1.2935 C.3       1 <0>         0.0000
     14 C14         1.1534   -0.2750    0.3710 C.3       1 <0>         0.0000
     15 C15        -1.0699    3.9009    0.2855 C.3       1 <0>         0.0000
     16 N1          1.6681    0.0834   -0.9557 N.3       1 <0>         0.0000
     17 N2          1.4238   -0.2520    4.8674 N.am      1 <0>         0.0000
     18 N3          1.7877    0.0290    3.5734 N.am      1 <0>         0.0000
     19 O1          3.6213   -0.4699    5.5658 O.2       1 <0>         0.0000
     20 O2          1.7602   -2.2018    2.9407 O.2       1 <0>         0.0000
     21 O3          3.2186   -1.5159    0.7230 O.3       1 <0>         0.0000
     22 S1         -2.0492    2.4644    0.7791 S.3       1 <0>         0.0000
     23 Cl1         3.2440   -2.7561   10.4008 Cl        1 <0>         0.0000
     24 H1         -0.6664   -0.1113    9.2573 H         1 <0>         0.0000
     25 H2          0.1097    0.3528    6.9588 H         1 <0>         0.0000
     26 H3          0.7056   -1.4810   10.7846 H         1 <0>         0.0000
     27 H4          3.6769   -1.9403    7.6980 H         1 <0>         0.0000
     28 H5         -2.4105    4.5137   -1.2989 H         1 <0>         0.0000
     29 H6         -0.7576    5.0967   -1.5064 H         1 <0>         0.0000
     30 H7         -1.1520    3.3963   -1.8378 H         1 <0>         0.0000
     31 H8         -2.4367    5.3604    1.1134 H         1 <0>         0.0000
     32 H9         -0.7841    5.9563    0.9431 H         1 <0>         0.0000
     33 H10        -1.1964    4.8333    2.2564 H         1 <0>         0.0000
     34 H11        -0.1531    0.5335    1.9082 H         1 <0>         0.0000
     35 H12         0.7975    1.7493    1.0822 H         1 <0>         0.0000
     36 H13        -1.6176    0.2727   -0.0585 H         1 <0>         0.0000
     37 H14        -0.7009    1.4813   -0.9501 H         1 <0>         0.0000
     38 H15         2.9484    0.3859    1.4229 H         1 <0>         0.0000
     39 H16         0.5915   -1.2082    0.2610 H         1 <0>         0.0000
     40 H17        -0.0132    3.6330    0.3910 H         1 <0>         0.0000
     41 H18         0.8845    0.1717   -1.5934 H         1 <0>         0.0000
     42 H19         2.2416   -0.6802   -1.2969 H         1 <0>         0.0000
     43 H20         0.4458   -0.2847    5.1337 H         1 <0>         0.0000
     44 H21         1.9478    0.9869    3.2798 H         1 <0>         0.0000
     45 H22         2.7041   -2.3378    0.6655 H         1 <0>         0.0000
@<TRIPOS>BOND
     1    1    2 ar
     2    1    3 ar
     3    2    5 ar
     4    3    6 ar
     5    4    5 ar
     6    4    6 ar
     7    5    7 1
     8    6   23 1
     9    7   17 am
    10    7   19 2
    11    8   13 1
    12    8   18 am
    13    8   20 2
    14    9   15 1
    15   10   15 1
    16   11   12 1
    17   11   14 1
    18   12   22 1
    19   13   14 1
    20   13   21 1
    21   14   16 1
    22   15   22 1
    23   17   18 1
    24    1   24 1
    25    2   25 1
    26    3   26 1
    27    4   27 1
    28    9   28 1
    29    9   29 1
    30    9   30 1
    31   10   31 1
    32   10   32 1
    33   10   33 1
    34   11   34 1
    35   11   35 1
    36   12   36 1
    37   12   37 1
    38   13   38 1
    39   14   39 1
    40   15   40 1
    41   16   41 1
    42   16   42 1
    43   17   43 1
    44   18   44 1
    45   21   45 1
@<TRIPOS>MOLECULE
LIGAND
   45    45     0     0     0
SMALL
NO_CHARGES

@<TRIPOS>ATOM
      1 C1          1.7274    0.4825    9.6814 C.ar      1 <0>         0.0000
      2 C2          2.0431    0.8764    8.3811 C.ar      1 <0>         0.0000
      3 C3          1.0216   -0.7006    9.8998 C.ar      1 <0>         0.0000
      4 C4          0.9471   -1.0959    7.5175 C.ar      1 <0>         0.0000
      5 C5          1.6530    0.0872    7.2991 C.ar      1 <0>         0.0000
      6 C6          0.6315   -1.4898    8.8178 C.ar      1 <0>         0.0000
      7 C7          1.9892    0.5079    5.9143 C.2       1 <0>         0.0000
      8 C8          1.9325   -1.0133    2.6768 C.2       1 <0>         0.0000
      9 C9         -4.0623    0.8550    1.3177 C.3       1 <0>         0.0000
     10 C10        -3.5584   -1.5885    1.6583 C.3       1 <0>         0.0000
     11 C11         0.2195    0.8307    0.9188 C.3       1 <0>         0.0000
     12 C12        -1.0001    1.1700    0.0549 C.3       1 <0>         0.0000
     13 C13         2.3649   -0.5352    1.2935 C.3       1 <0>         0.0000
     14 C14         1.1534   -0.2750    0.3710 C.3       1 <0>         0.0000
     15 C15        -2.9754   -0.2124    1.3599 C.3       1 <0>         0.0000
     16 N1          1.6681    0.0834   -0.9557 N.3       1 <0>         0.0000
     17 N2          2.1084   -0.5131    4.9911 N.am      1 <0>         0.0000
     18 N3          2.3999   -0.1941    3.6876 N.am      1 <0>         0.0000
     19 O1          2.1244    1.7030    5.6640 O.2       1 <0>         0.0000
     20 O2          1.2610   -2.0296    2.8442 O.2       1 <0>         0.0000
     21 O3          3.2186   -1.5159    0.7230 O.3       1 <0>         0.0000
     22 S1         -2.0977   -0.2515   -0.2193 S.3       1 <0>         0.0000
     23 Cl1        -0.2390   -2.9499    9.0881 Cl        1 <0>         0.0000
     24 H1          2.0316    1.0970   10.5236 H         1 <0>         0.0000
     25 H2          2.5934    1.8005    8.2236 H         1 <0>         0.0000
     26 H3          0.7827   -0.9948   10.9185 H         1 <0>         0.0000
     27 H4          0.6445   -1.7099    6.6716 H         1 <0>         0.0000
     28 H5         -4.8019    0.6148    0.5457 H         1 <0>         0.0000
     29 H6         -4.5966    0.9180    2.2722 H         1 <0>         0.0000
     30 H7         -3.6542    1.8453    1.0855 H         1 <0>         0.0000
     31 H8         -4.2902   -1.8663    0.8915 H         1 <0>         0.0000
     32 H9         -4.0769   -1.6012    2.6234 H         1 <0>         0.0000
     33 H10        -2.7856   -2.3656    1.6725 H         1 <0>         0.0000
     34 H11        -0.1531    0.5335    1.9082 H         1 <0>         0.0000
     35 H12         0.7975    1.7493    1.0822 H         1 <0>         0.0000
     36 H13        -0.6573    1.5138   -0.9268 H         1 <0>         0.0000
     37 H14        -1.5832    1.9849    0.4933 H         1 <0>         0.0000
     38 H15         2.9484    0.3859    1.4229 H         1 <0>         0.0000
     39 H16         0.5915   -1.2082    0.2610 H         1 <0>         0.0000
     40 H17        -2.2476    0.0460    2.1366 H         1 <0>         0.0000
     41 H18         0.8845    0.1717   -1.5934 H         1 <0>         0.0000
     42 H19         2.2416   -0.6802   -1.2969 H         1 <0>         0.0000
     43 H20         1.9830   -1.4798    5.2709 H         1 <0>         0.0000
     44 H21         2.9499    0.6302    3.4697 H         1 <0>         0.0000
     45 H22         2.7041   -2.3378    0.6655 H         1 <0>         0.0000
@<TRIPOS>BOND
     1    1    2 ar
     2    1    3 ar
     3    2    5 ar
     4    3    6 ar
     5    4    5 ar
     6    4    6 ar
     7    5    7 1
     8    6   23 1
     9    7   17 am
    10    7   19 2
    11    8   13 1
    12    8   18 am
    13    8   20 2
    14    9   15 1
    15   10   15 1
    16   11   12 1
    17   11   14 1
    18   12   22 1
    19   13   14 1
    20   13   21 1
    21   14   16 1
    22   15   22 1
    23   17   18 1
    24    1   24 1
    25    2   25 1
    26    3   26 1
    27    4   27 1
    28    9   28 1
    29    9   29 1
    30    9   30 1
    31   10   31 1
    32   10   32 1
    33   10   33 1
    34   11   34 1
    35   11   35 1
    36   12   36 1
    37   12   37 1
    38   13   38 1
    39   14   39 1
    40   15   40 1
    41   16   41 1
    42   16   42 1
    43   17   43 1
    44   18   44 1
    45   21   45 1
@<TRIPOS>MOLECULE
LIGAND
   45    45     0     0     0
SMALL
NO_CHARGES

@<TRIPOS>ATOM
      1 C1          2.4230   -4.2883    8.5214 C.ar      1 <0>         0.0000
      2 C2          2.6907   -3.9683    7.1905 C.ar      1 <0>         0.0000
      3 C3          2.2530   -3.2726    9.4623 C.ar      1 <0>         0.0000
      4 C4          2.6187   -1.6170    7.7412 C.ar      1 <0>         0.0000
      5 C5          2.7886   -2.6327    6.8003 C.ar      1 <0>         0.0000
      6 C6          2.3509   -1.9370    9.0722 C.ar      1 <0>         0.0000
      7 C7          3.0744   -2.2928    5.3823 C.2       1 <0>         0.0000
      8 C8          1.9325   -1.0133    2.6768 C.2       1 <0>         0.0000
      9 C9         -2.8396    0.6809   -2.6742 C.3       1 <0>         0.0000
     10 C10        -4.6560   -0.1960   -1.1670 C.3       1 <0>         0.0000
     11 C11         0.2195    0.8307    0.9188 C.3       1 <0>         0.0000
     12 C12        -1.0001    1.1700    0.0549 C.3       1 <0>         0.0000
     13 C13         2.3649   -0.5352    1.2935 C.3       1 <0>         0.0000
     14 C14         1.1534   -0.2750    0.3710 C.3       1 <0>         0.0000
     15 C15        -3.3416    0.5718   -1.2395 C.3       1 <0>         0.0000
     16 N1          1.6681    0.0834   -0.9557 N.3       1 <0>         0.0000
     17 N2          2.6023   -1.0670    4.9540 N.am      1 <0>         0.0000
     18 N3          2.8469   -0.6810    3.6590 N.am      1 <0>         0.0000
     19 O1          3.7083   -3.0847    4.6892 O.2       1 <0>         0.0000
     20 O2          0.8915   -1.6405    2.8632 O.2       1 <0>         0.0000
     21 O3          3.2186   -1.5159    0.7230 O.3       1 <0>         0.0000
     22 S1         -2.0977   -0.2515   -0.2193 S.3       1 <0>         0.0000
     23 Cl1         2.1407   -0.6842   10.2336 Cl        1 <0>         0.0000
     24 H1          2.3465   -5.3282    8.8249 H         1 <0>         0.0000
     25 H2          2.8213   -4.7686    6.4665 H         1 <0>         0.0000
     26 H3          2.0449   -3.5371   10.4958 H         1 <0>         0.0000
     27 H4          2.6951   -0.5760    7.4338 H         1 <0>         0.0000
     28 H5         -2.6847   -0.3167   -3.1002 H         1 <0>         0.0000
     29 H6         -3.5648    1.1984   -3.3121 H         1 <0>         0.0000
     30 H7         -1.8850    1.2160   -2.7338 H         1 <0>         0.0000
     31 H8         -4.5291   -1.2071   -1.5698 H         1 <0>         0.0000
     32 H9         -5.4375    0.2943   -1.7580 H         1 <0>         0.0000
     33 H10        -5.0153   -0.2952   -0.1363 H         1 <0>         0.0000
     34 H11        -0.1531    0.5335    1.9082 H         1 <0>         0.0000
     35 H12         0.7975    1.7493    1.0822 H         1 <0>         0.0000
     36 H13        -0.6573    1.5138   -0.9268 H         1 <0>         0.0000
     37 H14        -1.5832    1.9849    0.4933 H         1 <0>         0.0000
     38 H15         2.9484    0.3859    1.4229 H         1 <0>         0.0000
     39 H16         0.5915   -1.2082    0.2610 H         1 <0>         0.0000
     40 H17        -3.4899    1.5778   -0.8328 H         1 <0>         0.0000
     41 H18         0.8845    0.1717   -1.5934 H         1 <0>         0.0000
     42 H19         2.2416   -0.6802   -1.2969 H         1 <0>         0.0000
     43 H20         2.0849   -0.4638    5.5841 H         1 <0>         0.0000
     44 H21         3.6858   -0.1599    3.4266 H         1 <0>         0.0000
     45 H22         2.7041   -2.3378    0.6655 H         1 <0>         0.0000
@<TRIPOS>BOND
     1    1    2 ar
     2    1    3 ar
     3    2    5 ar
     4    3    6 ar
     5    4    5 ar
     6    4    6 ar
     7    5    7 1
     8    6   23 1
     9    7   17 am
    10    7   19 2
    11    8   13 1
    12    8   18 am
    13    8   20 2
    14    9   15 1
    15   10   15 1
    16   11   12 1
    17   11   14 1
    18   12   22 1
    19   13   14 1
    20   13   21 1
    21   14   16 1
    22   15   22 1
    23   17   18 1
    24    1   24 1
    25    2   25 1
    26    3   26 1
    27    4   27 1
    28    9   28 1
    29    9   29 1
    30    9   30 1
    31   10   31 1
    32   10   32 1
    33   10   33 1
    34   11   34 1
    35   11   35 1
    36   12   36 1
    37   12   37 1
    38   13   38 1
    39   14   39 1
    40   15   40 1
    41   16   41 1
    42   16   42 1
    43   17   43 1
    44   18   44 1
    45   21   45 1
@<TRIPOS>MOLECULE
LIGAND
   45    45     0     0     0
SMALL
NO_CHARGES

@<TRIPOS>ATOM
      1 C1         -1.7183   -0.4637    8.5029 C.ar      1 <0>         0.0000
      2 C2         -1.4200   -0.1538    7.1760 C.ar      1 <0>         0.0000
      3 C3         -0.8331   -1.2363    9.2547 C.ar      1 <0>         0.0000
      4 C4          0.6487   -1.3893    7.3526 C.ar      1 <0>         0.0000
      5 C5         -0.2366   -0.6167    6.6009 C.ar      1 <0>         0.0000
      6 C6          0.3503   -1.6991    8.6795 C.ar      1 <0>         0.0000
      7 C7          0.0801   -0.2867    5.1871 C.2       1 <0>         0.0000
      8 C8          1.9325   -1.0133    2.6768 C.2       1 <0>         0.0000
      9 C9         -4.5752    3.1779    0.0331 C.3       1 <0>         0.0000
     10 C10        -2.7668    3.3107   -1.7140 C.3       1 <0>         0.0000
     11 C11         0.2195    0.8307    0.9188 C.3       1 <0>         0.0000
     12 C12        -1.0001    1.1700    0.0549 C.3       1 <0>         0.0000
     13 C13         2.3649   -0.5352    1.2935 C.3       1 <0>         0.0000
     14 C14         1.1534   -0.2750    0.3710 C.3       1 <0>         0.0000
     15 C15        -3.3066    2.5373   -0.5169 C.3       1 <0>         0.0000
     16 N1          1.6681    0.0834   -0.9557 N.3       1 <0>         0.0000
     17 N2          1.4238   -0.2520    4.8674 N.am      1 <0>         0.0000
     18 N3          1.7877    0.0290    3.5734 N.am      1 <0>         0.0000
     19 O1         -0.8375   -0.0833    4.3961 O.2       1 <0>         0.0000
     20 O2          1.7602   -2.2018    2.9407 O.2       1 <0>         0.0000
     21 O3          3.2186   -1.5159    0.7230 O.3       1 <0>         0.0000
     22 S1         -2.0492    2.4644    0.7791 S.3       1 <0>         0.0000
     23 Cl1         1.4424   -2.6521    9.6079 Cl        1 <0>         0.0000
     24 H1         -2.6397   -0.1029    8.9506 H         1 <0>         0.0000
     25 H2         -2.1177    0.4490    6.6003 H         1 <0>         0.0000
     26 H3         -1.0790   -1.4697   10.2874 H         1 <0>         0.0000
     27 H4          1.5714   -1.7486    6.9015 H         1 <0>         0.0000
     28 H5         -4.3764    4.2092    0.3452 H         1 <0>         0.0000
     29 H6         -5.3650    3.2137   -0.7256 H         1 <0>         0.0000
     30 H7         -4.9604    2.6385    0.9059 H         1 <0>         0.0000
     31 H8         -2.5401    4.3441   -1.4288 H         1 <0>         0.0000
     32 H9         -3.5004    3.3505   -2.5268 H         1 <0>         0.0000
     33 H10        -1.8438    2.8672   -2.1048 H         1 <0>         0.0000
     34 H11        -0.1531    0.5335    1.9082 H         1 <0>         0.0000
     35 H12         0.7975    1.7493    1.0822 H         1 <0>         0.0000
     36 H13        -1.6176    0.2727   -0.0585 H         1 <0>         0.0000
     37 H14        -0.7009    1.4813   -0.9501 H         1 <0>         0.0000
     38 H15         2.9484    0.3859    1.4229 H         1 <0>         0.0000
     39 H16         0.5915   -1.2082    0.2610 H         1 <0>         0.0000
     40 H17        -3.5264    1.5088   -0.8227 H         1 <0>         0.0000
     41 H18         0.8845    0.1717   -1.5934 H         1 <0>         0.0000
     42 H19         2.2416   -0.6802   -1.2969 H         1 <0>         0.0000
     43 H20         2.1281   -0.4306    5.5750 H         1 <0>         0.0000
     44 H21         1.9478    0.9869    3.2798 H         1 <0>         0.0000
     45 H22         2.7041   -2.3378    0.6655 H         1 <0>         0.0000
@<TRIPOS>BOND
     1    1    2 ar
     2    1    3 ar
     3    2    5 ar
     4    3    6 ar
     5    4    5 ar
     6    4    6 ar
     7    5    7 1
     8    6   23 1
     9    7   17 am
    10    7   19 2
    11    8   13 1
    12    8   18 am
    13    8   20 2
    14    9   15 1
    15   10   15 1
    16   11   12 1
    17   11   14 1
    18   12   22 1
    19   13   14 1
    20   13   21 1
    21   14   16 1
    22   15   22 1
    23   17   18 1
    24    1   24 1
    25    2   25 1
    26    3   26 1
    27    4   27 1
    28    9   28 1
    29    9   29 1
    30    9   30 1
    31   10   31 1
    32   10   32 1
    33   10   33 1
    34   11   34 1
    35   11   35 1
    36   12   36 1
    37   12   37 1
    38   13   38 1
    39   14   39 1
    40   15   40 1
    41   16   41 1
    42   16   42 1
    43   17   43 1
    44   18   44 1
    45   21   45 1
@<TRIPOS>MOLECULE
LIGAND
   45    45     0     0     0
SMALL
NO_CHARGES

@<TRIPOS>ATOM
      1 C1          0.3862   -0.6315    8.9351 C.ar      1 <0>         0.0000
      2 C2          0.6829   -0.3226    7.6077 C.ar      1 <0>         0.0000
      3 C3         -0.8301   -1.2346    9.2558 C.ar      1 <0>         0.0000
      4 C4         -1.4528   -1.2197    6.9215 C.ar      1 <0>         0.0000
      5 C5         -0.2366   -0.6167    6.6009 C.ar      1 <0>         0.0000
      6 C6         -1.7496   -1.5286    8.2490 C.ar      1 <0>         0.0000
      7 C7          0.0801   -0.2867    5.1871 C.2       1 <0>         0.0000
      8 C8          1.9325   -1.0133    2.6768 C.2       1 <0>         0.0000
      9 C9         -4.5752    3.1779    0.0331 C.3       1 <0>         0.0000
     10 C10        -2.7668    3.3107   -1.7140 C.3       1 <0>         0.0000
     11 C11         0.2195    0.8307    0.9188 C.3       1 <0>         0.0000
     12 C12        -1.0001    1.1700    0.0549 C.3       1 <0>         0.0000
     13 C13         2.3649   -0.5352    1.2935 C.3       1 <0>         0.0000
     14 C14         1.1534   -0.2750    0.3710 C.3       1 <0>         0.0000
     15 C15        -3.3066    2.5373   -0.5169 C.3       1 <0>         0.0000
     16 N1          1.6681    0.0834   -0.9557 N.3       1 <0>         0.0000
     17 N2          1.4238   -0.2520    4.8674 N.am      1 <0>         0.0000
     18 N3          1.7877    0.0290    3.5734 N.am      1 <0>         0.0000
     19 O1         -0.8375   -0.0833    4.3961 O.2       1 <0>         0.0000
     20 O2          1.7602   -2.2018    2.9407 O.2       1 <0>         0.0000
     21 O3          3.2186   -1.5159    0.7230 O.3       1 <0>         0.0000
     22 S1         -2.0492    2.4644    0.7791 S.3       1 <0>         0.0000
     23 Cl1        -3.2499   -2.2732    8.6452 Cl        1 <0>         0.0000
     24 H1          1.1023   -0.4028    9.7188 H         1 <0>         0.0000
     25 H2          1.6339    0.1473    7.3703 H         1 <0>         0.0000
     26 H3         -1.0475   -1.4695   10.2945 H         1 <0>         0.0000
     27 H4         -2.1680   -1.4485    6.1339 H         1 <0>         0.0000
     28 H5         -4.3764    4.2092    0.3452 H         1 <0>         0.0000
     29 H6         -5.3650    3.2137   -0.7256 H         1 <0>         0.0000
     30 H7         -4.9604    2.6385    0.9059 H         1 <0>         0.0000
     31 H8         -2.5401    4.3441   -1.4288 H         1 <0>         0.0000
     32 H9         -3.5004    3.3505   -2.5268 H         1 <0>         0.0000
     33 H10        -1.8438    2.8672   -2.1048 H         1 <0>         0.0000
     34 H11        -0.1531    0.5335    1.9082 H         1 <0>         0.0000
     35 H12         0.7975    1.7493    1.0822 H         1 <0>         0.0000
     36 H13        -1.6176    0.2727   -0.0585 H         1 <0>         0.0000
     37 H14        -0.7009    1.4813   -0.9501 H         1 <0>         0.0000
     38 H15         2.9484    0.3859    1.4229 H         1 <0>         0.0000
     39 H16         0.5915   -1.2082    0.2610 H         1 <0>         0.0000
     40 H17        -3.5264    1.5088   -0.8227 H         1 <0>         0.0000
     41 H18         0.8845    0.1717   -1.5934 H         1 <0>         0.0000
     42 H19         2.2416   -0.6802   -1.2969 H         1 <0>         0.0000
     43 H20         2.1281   -0.4306    5.5750 H         1 <0>         0.0000
     44 H21         1.9478    0.9869    3.2798 H         1 <0>         0.0000
     45 H22         2.7041   -2.3378    0.6655 H         1 <0>         0.0000
@<TRIPOS>BOND
     1    1    2 ar
     2    1    3 ar
     3    2    5 ar
     4    3    6 ar
     5    4    5 ar
     6    4    6 ar
     7    5    7 1
     8    6   23 1
     9    7   17 am
    10    7   19 2
    11    8   13 1
    12    8   18 am
    13    8   20 2
    14    9   15 1
    15   10   15 1
    16   11   12 1
    17   11   14 1
    18   12   22 1
    19   13   14 1
    20   13   21 1
    21   14   16 1
    22   15   22 1
    23   17   18 1
    24    1   24 1
    25    2   25 1
    26    3   26 1
    27    4   27 1
    28    9   28 1
    29    9   29 1
    30    9   30 1
    31   10   31 1
    32   10   32 1
    33   10   33 1
    34   11   34 1
    35   11   35 1
    36   12   36 1
    37   12   37 1
    38   13   38 1
    39   14   39 1
    40   15   40 1
    41   16   41 1
    42   16   42 1
    43   17   43 1
    44   18   44 1
    45   21   45 1
@<TRIPOS>MOLECULE
LIGAND
   45    45     0     0     0
SMALL
NO_CHARGES

@<TRIPOS>ATOM
      1 C1          2.3084   -2.0825    9.0344 C.ar      1 <0>         0.0000
      2 C2          2.5351   -1.6185    7.7387 C.ar      1 <0>         0.0000
      3 C3          1.1971   -1.6371    9.7503 C.ar      1 <0>         0.0000
      4 C4          0.5395   -0.2636    7.8747 C.ar      1 <0>         0.0000
      5 C5          1.6507   -0.7090    7.1588 C.ar      1 <0>         0.0000
      6 C6          0.3127   -0.7276    9.1704 C.ar      1 <0>         0.0000
      7 C7          1.8934   -0.2148    5.7787 C.2       1 <0>         0.0000
      8 C8          1.9325   -1.0133    2.6768 C.2       1 <0>         0.0000
      9 C9          0.9992    5.4655    0.4702 C.3       1 <0>         0.0000
     10 C10         0.2949    5.8734    2.8530 C.3       1 <0>         0.0000
     11 C11         0.2195    0.8307    0.9188 C.3       1 <0>         0.0000
     12 C12         0.8590    2.2074    1.1305 C.3       1 <0>         0.0000
     13 C13         2.3649   -0.5352    1.2935 C.3       1 <0>         0.0000
     14 C14         1.1534   -0.2750    0.3710 C.3       1 <0>         0.0000
     15 C15         0.8241    4.8515    1.8540 C.3       1 <0>         0.0000
     16 N1          1.6681    0.0834   -0.9557 N.3       1 <0>         0.0000
     17 N2          2.6023   -1.0670    4.9540 N.am      1 <0>         0.0000
     18 N3          2.8469   -0.6810    3.6590 N.am      1 <0>         0.0000
     19 O1          1.4534    0.8829    5.4461 O.2       1 <0>         0.0000
     20 O2          0.8915   -1.6405    2.8632 O.2       1 <0>         0.0000
     21 O3          3.2186   -1.5159    0.7230 O.3       1 <0>         0.0000
     22 S1         -0.3102    3.4478    1.7590 S.3       1 <0>         0.0000
     23 Cl1        -1.0586   -0.1788   10.0541 Cl        1 <0>         0.0000
     24 H1          2.9969   -2.7909    9.4856 H         1 <0>         0.0000
     25 H2          3.4046   -1.9729    7.1910 H         1 <0>         0.0000
     26 H3          1.0333   -2.0074   10.7590 H         1 <0>         0.0000
     27 H4         -0.1491    0.4455    7.4196 H         1 <0>         0.0000
     28 H5          0.0422    5.8509    0.1009 H         1 <0>         0.0000
     29 H6          1.7019    6.3059    0.4928 H         1 <0>         0.0000
     30 H7          1.3622    4.7326   -0.2594 H         1 <0>         0.0000
     31 H8         -0.6729    6.2651    2.5204 H         1 <0>         0.0000
     32 H9          0.9758    6.7263    2.9496 H         1 <0>         0.0000
     33 H10         0.1486    5.4355    3.8470 H         1 <0>         0.0000
     34 H11        -0.6259    0.9652    0.2307 H         1 <0>         0.0000
     35 H12        -0.2197    0.5004    1.8688 H         1 <0>         0.0000
     36 H13         1.2423    2.5738    0.1722 H         1 <0>         0.0000
     37 H14         1.7108    2.1489    1.8142 H         1 <0>         0.0000
     38 H15         2.9484    0.3859    1.4229 H         1 <0>         0.0000
     39 H16         0.5915   -1.2082    0.2610 H         1 <0>         0.0000
     40 H17         1.7903    4.4730    2.2043 H         1 <0>         0.0000
     41 H18         0.8845    0.1717   -1.5934 H         1 <0>         0.0000
     42 H19         2.2416   -0.6802   -1.2969 H         1 <0>         0.0000
     43 H20         2.9356   -1.9607    5.2985 H         1 <0>         0.0000
     44 H21         3.6858   -0.1599    3.4266 H         1 <0>         0.0000
     45 H22         2.7041   -2.3378    0.6655 H         1 <0>         0.0000
@<TRIPOS>BOND
     1    1    2 ar
     2    1    3 ar
     3    2    5 ar
     4    3    6 ar
     5    4    5 ar
     6    4    6 ar
     7    5    7 1
     8    6   23 1
     9    7   17 am
    10    7   19 2
    11    8   13 1
    12    8   18 am
    13    8   20 2
    14    9   15 1
    15   10   15 1
    16   11   12 1
    17   11   14 1
    18   12   22 1
    19   13   14 1
    20   13   21 1
    21   14   16 1
    22   15   22 1
    23   17   18 1
    24    1   24 1
    25    2   25 1
    26    3   26 1
    27    4   27 1
    28    9   28 1
    29    9   29 1
    30    9   30 1
    31   10   31 1
    32   10   32 1
    33   10   33 1
    34   11   34 1
    35   11   35 1
    36   12   36 1
    37   12   37 1
    38   13   38 1
    39   14   39 1
    40   15   40 1
    41   16   41 1
    42   16   42 1
    43   17   43 1
    44   18   44 1
    45   21   45 1
@<TRIPOS>MOLECULE
LIGAND
   45    45     0     0     0
SMALL
NO_CHARGES

@<TRIPOS>ATOM
      1 C1          1.2491   -0.2643    9.4993 C.ar      1 <0>         0.0000
      2 C2          1.4776    0.1988    8.2036 C.ar      1 <0>         0.0000
      3 C3          1.1939   -1.6354    9.7503 C.ar      1 <0>         0.0000
      4 C4          1.5955   -2.0801    7.4098 C.ar      1 <0>         0.0000
      5 C5          1.6507   -0.7090    7.1588 C.ar      1 <0>         0.0000
      6 C6          1.3670   -2.5432    8.7056 C.ar      1 <0>         0.0000
      7 C7          1.8934   -0.2148    5.7787 C.2       1 <0>         0.0000
      8 C8          1.9325   -1.0133    2.6768 C.2       1 <0>         0.0000
      9 C9          0.9992    5.4655    0.4702 C.3       1 <0>         0.0000
     10 C10         0.2949    5.8734    2.8530 C.3       1 <0>         0.0000
     11 C11         0.2195    0.8307    0.9188 C.3       1 <0>         0.0000
     12 C12         0.8590    2.2074    1.1305 C.3       1 <0>         0.0000
     13 C13         2.3649   -0.5352    1.2935 C.3       1 <0>         0.0000
     14 C14         1.1534   -0.2750    0.3710 C.3       1 <0>         0.0000
     15 C15         0.8241    4.8515    1.8540 C.3       1 <0>         0.0000
     16 N1          1.6681    0.0834   -0.9557 N.3       1 <0>         0.0000
     17 N2          2.6023   -1.0670    4.9540 N.am      1 <0>         0.0000
     18 N3          2.8469   -0.6810    3.6590 N.am      1 <0>         0.0000
     19 O1          1.4534    0.8829    5.4461 O.2       1 <0>         0.0000
     20 O2          0.8915   -1.6405    2.8632 O.2       1 <0>         0.0000
     21 O3          3.2186   -1.5159    0.7230 O.3       1 <0>         0.0000
     22 S1         -0.3102    3.4478    1.7590 S.3       1 <0>         0.0000
     23 Cl1         1.2993   -4.2348    9.0161 Cl        1 <0>         0.0000
     24 H1          1.1146    0.4426   10.3126 H         1 <0>         0.0000
     25 H2          1.5183    1.2695    8.0204 H         1 <0>         0.0000
     26 H3          1.0151   -1.9815   10.7651 H         1 <0>         0.0000
     27 H4          1.7315   -2.7860    6.5930 H         1 <0>         0.0000
     28 H5          0.0422    5.8509    0.1009 H         1 <0>         0.0000
     29 H6          1.7019    6.3059    0.4928 H         1 <0>         0.0000
     30 H7          1.3622    4.7326   -0.2594 H         1 <0>         0.0000
     31 H8         -0.6729    6.2651    2.5204 H         1 <0>         0.0000
     32 H9          0.9758    6.7263    2.9496 H         1 <0>         0.0000
     33 H10         0.1486    5.4355    3.8470 H         1 <0>         0.0000
     34 H11        -0.6259    0.9652    0.2307 H         1 <0>         0.0000
     35 H12        -0.2197    0.5004    1.8688 H         1 <0>         0.0000
     36 H13         1.2423    2.5738    0.1722 H         1 <0>         0.0000
     37 H14         1.7108    2.1489    1.8142 H         1 <0>         0.0000
     38 H15         2.9484    0.3859    1.4229 H         1 <0>         0.0000
     39 H16         0.5915   -1.2082    0.2610 H         1 <0>         0.0000
     40 H17         1.7903    4.4730    2.2043 H         1 <0>         0.0000
     41 H18         0.8845    0.1717   -1.5934 H         1 <0>         0.0000
     42 H19         2.2416   -0.6802   -1.2969 H         1 <0>         0.0000
     43 H20         2.9356   -1.9607    5.2985 H         1 <0>         0.0000
     44 H21         3.6858   -0.1599    3.4266 H         1 <0>         0.0000
     45 H22         2.7041   -2.3378    0.6655 H         1 <0>         0.0000
@<TRIPOS>BOND
     1    1    2 ar
     2    1    3 ar
     3    2    5 ar
     4    3    6 ar
     5    4    5 ar
     6    4    6 ar
     7    5    7 1
     8    6   23 1
     9    7   17 am
    10    7   19 2
    11    8   13 1
    12    8   18 am
    13    8   20 2
    14    9   15 1
    15   10   15 1
    16   11   12 1
    17   11   14 1
    18   12   22 1
    19   13   14 1
    20   13   21 1
    21   14   16 1
    22   15   22 1
    23   17   18 1
    24    1   24 1
    25    2   25 1
    26    3   26 1
    27    4   27 1
    28    9   28 1
    29    9   29 1
    30    9   30 1
    31   10   31 1
    32   10   32 1
    33   10   33 1
    34   11   34 1
    35   11   35 1
    36   12   36 1
    37   12   37 1
    38   13   38 1
    39   14   39 1
    40   15   40 1
    41   16   41 1
    42   16   42 1
    43   17   43 1
    44   18   44 1
    45   21   45 1
@<TRIPOS>MOLECULE
LIGAND
   45    45     0     0     0
SMALL
NO_CHARGES

@<TRIPOS>ATOM
      1 C1         -0.2959   -1.7283    8.4655 C.ar      1 <0>         0.0000
      2 C2          0.0807   -1.4558    7.1504 C.ar      1 <0>         0.0000
      3 C3         -1.6473   -1.8121    8.8008 C.ar      1 <0>         0.0000
      4 C4         -2.2454   -1.3505    6.5060 C.ar      1 <0>         0.0000
      5 C5         -0.8940   -1.2668    6.1707 C.ar      1 <0>         0.0000
      6 C6         -2.6221   -1.6232    7.8211 C.ar      1 <0>         0.0000
      7 C7         -0.4919   -0.9759    4.7701 C.2       1 <0>         0.0000
      8 C8          1.9325   -1.0133    2.6768 C.2       1 <0>         0.0000
      9 C9          2.7221    4.6042   -2.2190 C.3       1 <0>         0.0000
     10 C10         2.5092    5.3544    0.1752 C.3       1 <0>         0.0000
     11 C11         1.5761    0.1765   -1.0474 C.3       1 <0>         0.0000
     12 C12         2.3784    1.4800   -1.1273 C.3       1 <0>         0.0000
     13 C13         2.3649   -0.5352    1.2935 C.3       1 <0>         0.0000
     14 C14         1.1534   -0.2750    0.3710 C.3       1 <0>         0.0000
     15 C15         2.7418    4.1721   -0.7577 C.3       1 <0>         0.0000
     16 N1          0.3597   -1.5080    0.3138 N.3       1 <0>         0.0000
     17 N2          0.7320   -0.3536    4.6161 N.am      1 <0>         0.0000
     18 N3          1.1743   -0.0714    3.3469 N.am      1 <0>         0.0000
     19 O1         -1.2351   -1.3059    3.8493 O.2       1 <0>         0.0000
     20 O2          2.2555   -2.1109    3.1269 O.2       1 <0>         0.0000
     21 O3          3.2186   -1.5159    0.7230 O.3       1 <0>         0.0000
     22 S1          1.4741    2.9151   -0.4766 S.3       1 <0>         0.0000
     23 Cl1        -4.2894   -1.7271    8.2355 Cl        1 <0>         0.0000
     24 H1          0.4631   -1.8757    9.2280 H         1 <0>         0.0000
     25 H2          1.1369   -1.3929    6.9013 H         1 <0>         0.0000
     26 H3         -1.9258   -2.0251    9.8297 H         1 <0>         0.0000
     27 H4         -3.0036   -1.2033    5.7395 H         1 <0>         0.0000
     28 H5          1.7574    5.0604   -2.4680 H         1 <0>         0.0000
     29 H6          3.4979    5.3502   -2.4247 H         1 <0>         0.0000
     30 H7          2.8703    3.7569   -2.8981 H         1 <0>         0.0000
     31 H8          1.5412    5.8221   -0.0370 H         1 <0>         0.0000
     32 H9          3.2784    6.1235    0.0438 H         1 <0>         0.0000
     33 H10         2.5035    5.0496    1.2280 H         1 <0>         0.0000
     34 H11         2.1843   -0.6108   -1.5125 H         1 <0>         0.0000
     35 H12         0.6847    0.2765   -1.6798 H         1 <0>         0.0000
     36 H13         2.6151    1.6893   -2.1758 H         1 <0>         0.0000
     37 H14         3.3304    1.3937   -0.5957 H         1 <0>         0.0000
     38 H15         2.9484    0.3859    1.4229 H         1 <0>         0.0000
     39 H16         0.5249    0.4957    0.8291 H         1 <0>         0.0000
     40 H17         3.7127    3.7195   -0.5296 H         1 <0>         0.0000
     41 H18        -0.4842   -1.3249   -0.2178 H         1 <0>         0.0000
     42 H19         0.0690   -1.7492    1.2550 H         1 <0>         0.0000
     43 H20         1.2931   -0.1098    5.4249 H         1 <0>         0.0000
     44 H21         0.9480    0.8148    2.9078 H         1 <0>         0.0000
     45 H22         2.7041   -2.3378    0.6655 H         1 <0>         0.0000
@<TRIPOS>BOND
     1    1    2 ar
     2    1    3 ar
     3    2    5 ar
     4    3    6 ar
     5    4    5 ar
     6    4    6 ar
     7    5    7 1
     8    6   23 1
     9    7   17 am
    10    7   19 2
    11    8   13 1
    12    8   18 am
    13    8   20 2
    14    9   15 1
    15   10   15 1
    16   11   12 1
    17   11   14 1
    18   12   22 1
    19   13   14 1
    20   13   21 1
    21   14   16 1
    22   15   22 1
    23   17   18 1
    24    1   24 1
    25    2   25 1
    26    3   26 1
    27    4   27 1
    28    9   28 1
    29    9   29 1
    30    9   30 1
    31   10   31 1
    32   10   32 1
    33   10   33 1
    34   11   34 1
    35   11   35 1
    36   12   36 1
    37   12   37 1
    38   13   38 1
    39   14   39 1
    40   15   40 1
    41   16   41 1
    42   16   42 1
    43   17   43 1
    44   18   44 1
    45   21   45 1
@<TRIPOS>MOLECULE
LIGAND
   45    45     0     0     0
SMALL
NO_CHARGES

@<TRIPOS>ATOM
      1 C1          1.3200   -1.9638    8.8676 C.ar      1 <0>         0.0000
      2 C2          1.6218   -1.5213    7.5797 C.ar      1 <0>         0.0000
      3 C3          2.1606   -1.6378    9.9320 C.ar      1 <0>         0.0000
      4 C4          3.6050   -0.4271    8.4204 C.ar      1 <0>         0.0000
      5 C5          2.7643   -0.7530    7.3561 C.ar      1 <0>         0.0000
      6 C6          3.3031   -0.8695    9.7084 C.ar      1 <0>         0.0000
      7 C7          3.0854   -0.2826    5.9837 C.2       1 <0>         0.0000
      8 C8          1.9325   -1.0133    2.6768 C.2       1 <0>         0.0000
      9 C9         -2.8396    0.6809   -2.6742 C.3       1 <0>         0.0000
     10 C10        -4.6560   -0.1960   -1.1670 C.3       1 <0>         0.0000
     11 C11         0.2195    0.8307    0.9188 C.3       1 <0>         0.0000
     12 C12        -1.0001    1.1700    0.0549 C.3       1 <0>         0.0000
     13 C13         2.3649   -0.5352    1.2935 C.3       1 <0>         0.0000
     14 C14         1.1534   -0.2750    0.3710 C.3       1 <0>         0.0000
     15 C15        -3.3416    0.5718   -1.2395 C.3       1 <0>         0.0000
     16 N1          1.6681    0.0834   -0.9557 N.3       1 <0>         0.0000
     17 N2          2.6023   -1.0670    4.9540 N.am      1 <0>         0.0000
     18 N3          2.8469   -0.6810    3.6590 N.am      1 <0>         0.0000
     19 O1          3.7293    0.7533    5.8374 O.2       1 <0>         0.0000
     20 O2          0.8915   -1.6405    2.8632 O.2       1 <0>         0.0000
     21 O3          3.2186   -1.5159    0.7230 O.3       1 <0>         0.0000
     22 S1         -2.0977   -0.2515   -0.2193 S.3       1 <0>         0.0000
     23 Cl1         4.3397   -0.4674   11.0222 Cl        1 <0>         0.0000
     24 H1          0.4302   -2.5616    9.0415 H         1 <0>         0.0000
     25 H2          0.9591   -1.7818    6.7584 H         1 <0>         0.0000
     26 H3          1.9126   -1.9897   10.9300 H         1 <0>         0.0000
     27 H4          4.4953    0.1729    8.2431 H         1 <0>         0.0000
     28 H5         -2.6847   -0.3167   -3.1002 H         1 <0>         0.0000
     29 H6         -3.5648    1.1984   -3.3121 H         1 <0>         0.0000
     30 H7         -1.8850    1.2160   -2.7338 H         1 <0>         0.0000
     31 H8         -4.5291   -1.2071   -1.5698 H         1 <0>         0.0000
     32 H9         -5.4375    0.2943   -1.7580 H         1 <0>         0.0000
     33 H10        -5.0153   -0.2952   -0.1363 H         1 <0>         0.0000
     34 H11        -0.1531    0.5335    1.9082 H         1 <0>         0.0000
     35 H12         0.7975    1.7493    1.0822 H         1 <0>         0.0000
     36 H13        -0.6573    1.5138   -0.9268 H         1 <0>         0.0000
     37 H14        -1.5832    1.9849    0.4933 H         1 <0>         0.0000
     38 H15         2.9484    0.3859    1.4229 H         1 <0>         0.0000
     39 H16         0.5915   -1.2082    0.2610 H         1 <0>         0.0000
     40 H17        -3.4899    1.5778   -0.8328 H         1 <0>         0.0000
     41 H18         0.8845    0.1717   -1.5934 H         1 <0>         0.0000
     42 H19         2.2416   -0.6802   -1.2969 H         1 <0>         0.0000
     43 H20         2.0769   -1.9119    5.1509 H         1 <0>         0.0000
     44 H21         3.6858   -0.1599    3.4266 H         1 <0>         0.0000
     45 H22         2.7041   -2.3378    0.6655 H         1 <0>         0.0000
@<TRIPOS>BOND
     1    1    2 ar
     2    1    3 ar
     3    2    5 ar
     4    3    6 ar
     5    4    5 ar
     6    4    6 ar
     7    5    7 1
     8    6   23 1
     9    7   17 am
    10    7   19 2
    11    8   13 1
    12    8   18 am
    13    8   20 2
    14    9   15 1
    15   10   15 1
    16   11   12 1
    17   11   14 1
    18   12   22 1
    19   13   14 1
    20   13   21 1
    21   14   16 1
    22   15   22 1
    23   17   18 1
    24    1   24 1
    25    2   25 1
    26    3   26 1
    27    4   27 1
    28    9   28 1
    29    9   29 1
    30    9   30 1
    31   10   31 1
    32   10   32 1
    33   10   33 1
    34   11   34 1
    35   11   35 1
    36   12   36 1
    37   12   37 1
    38   13   38 1
    39   14   39 1
    40   15   40 1
    41   16   41 1
    42   16   42 1
    43   17   43 1
    44   18   44 1
    45   21   45 1
@<TRIPOS>MOLECULE
LIGAND
   45    45     0     0     0
SMALL
NO_CHARGES

@<TRIPOS>ATOM
      1 C1          1.3691   -2.5452    8.7036 C.ar      1 <0>         0.0000
      2 C2          1.5963   -2.0804    7.4082 C.ar      1 <0>         0.0000
      3 C3          1.1963   -1.6386    9.7496 C.ar      1 <0>         0.0000
      4 C4          1.4779    0.1975    8.2048 C.ar      1 <0>         0.0000
      5 C5          1.6507   -0.7090    7.1588 C.ar      1 <0>         0.0000
      6 C6          1.2507   -0.2673    9.5002 C.ar      1 <0>         0.0000
      7 C7          1.8934   -0.2148    5.7787 C.2       1 <0>         0.0000
      8 C8          1.9325   -1.0133    2.6768 C.2       1 <0>         0.0000
      9 C9         -4.1299   -0.4675   -2.0276 C.3       1 <0>         0.0000
     10 C10        -4.2566    1.4118   -0.3565 C.3       1 <0>         0.0000
     11 C11         0.2195    0.8307    0.9188 C.3       1 <0>         0.0000
     12 C12        -1.0001    1.1700    0.0549 C.3       1 <0>         0.0000
     13 C13         2.3649   -0.5352    1.2935 C.3       1 <0>         0.0000
     14 C14         1.1534   -0.2750    0.3710 C.3       1 <0>         0.0000
     15 C15        -3.3416    0.5718   -1.2395 C.3       1 <0>         0.0000
     16 N1          1.6681    0.0834   -0.9557 N.3       1 <0>         0.0000
     17 N2          2.6023   -1.0670    4.9540 N.am      1 <0>         0.0000
     18 N3          2.8469   -0.6810    3.6590 N.am      1 <0>         0.0000
     19 O1          1.4534    0.8829    5.4461 O.2       1 <0>         0.0000
     20 O2          0.8915   -1.6405    2.8632 O.2       1 <0>         0.0000
     21 O3          3.2186   -1.5159    0.7230 O.3       1 <0>         0.0000
     22 S1         -2.0977   -0.2515   -0.2193 S.3       1 <0>         0.0000
     23 Cl1         1.0368    0.8507   10.7913 Cl        1 <0>         0.0000
     24 H1          1.3265   -3.6129    8.8975 H         1 <0>         0.0000
     25 H2          1.7296   -2.7965    6.6014 H         1 <0>         0.0000
     26 H3          1.0200   -2.0156   10.7537 H         1 <0>         0.0000
     27 H4          1.5203    1.2667    8.0072 H         1 <0>         0.0000
     28 H5         -4.6663   -1.1363   -1.3453 H         1 <0>         0.0000
     29 H6         -4.8772    0.0053   -2.6747 H         1 <0>         0.0000
     30 H7         -3.4774   -1.0886   -2.6519 H         1 <0>         0.0000
     31 H8         -4.7949    0.7719    0.3515 H         1 <0>         0.0000
     32 H9         -5.0077    1.9429   -0.9517 H         1 <0>         0.0000
     33 H10        -3.6957    2.1500    0.2280 H         1 <0>         0.0000
     34 H11        -0.1531    0.5335    1.9082 H         1 <0>         0.0000
     35 H12         0.7975    1.7493    1.0822 H         1 <0>         0.0000
     36 H13        -0.6573    1.5138   -0.9268 H         1 <0>         0.0000
     37 H14        -1.5832    1.9849    0.4933 H         1 <0>         0.0000
     38 H15         2.9484    0.3859    1.4229 H         1 <0>         0.0000
     39 H16         0.5915   -1.2082    0.2610 H         1 <0>         0.0000
     40 H17        -2.8138    1.2291   -1.9386 H         1 <0>         0.0000
     41 H18         0.8845    0.1717   -1.5934 H         1 <0>         0.0000
     42 H19         2.2416   -0.6802   -1.2969 H         1 <0>         0.0000
     43 H20         2.9356   -1.9607    5.2985 H         1 <0>         0.0000
     44 H21         3.6858   -0.1599    3.4266 H         1 <0>         0.0000
     45 H22         2.7041   -2.3378    0.6655 H         1 <0>         0.0000
@<TRIPOS>BOND
     1    1    2 ar
     2    1    3 ar
     3    2    5 ar
     4    3    6 ar
     5    4    5 ar
     6    4    6 ar
     7    5    7 1
     8    6   23 1
     9    7   17 am
    10    7   19 2
    11    8   13 1
    12    8   18 am
    13    8   20 2
    14    9   15 1
    15   10   15 1
    16   11   12 1
    17   11   14 1
    18   12   22 1
    19   13   14 1
    20   13   21 1
    21   14   16 1
    22   15   22 1
    23   17   18 1
    24    1   24 1
    25    2   25 1
    26    3   26 1
    27    4   27 1
    28    9   28 1
    29    9   29 1
    30    9   30 1
    31   10   31 1
    32   10   32 1
    33   10   33 1
    34   11   34 1
    35   11   35 1
    36   12   36 1
    37   12   37 1
    38   13   38 1
    39   14   39 1
    40   15   40 1
    41   16   41 1
    42   16   42 1
    43   17   43 1
    44   18   44 1
    45   21   45 1
@<TRIPOS>MOLECULE
LIGAND
   45    45     0     0     0
SMALL
NO_CHARGES

@<TRIPOS>ATOM
      1 C1         -0.2456    0.9322    9.2201 C.ar      1 <0>         0.0000
      2 C2          0.1058    1.2906    7.9187 C.ar      1 <0>         0.0000
      3 C3         -0.3840   -0.4137    9.5596 C.ar      1 <0>         0.0000
      4 C4          0.1802   -1.0427    7.2962 C.ar      1 <0>         0.0000
      5 C5          0.3186    0.3032    6.9567 C.ar      1 <0>         0.0000
      6 C6         -0.1712   -1.4011    8.5976 C.ar      1 <0>         0.0000
      7 C7          0.6923    0.6859    5.5704 C.2       1 <0>         0.0000
      8 C8          1.9325   -1.0133    2.6768 C.2       1 <0>         0.0000
      9 C9         -4.5752    3.1779    0.0331 C.3       1 <0>         0.0000
     10 C10        -2.7668    3.3107   -1.7140 C.3       1 <0>         0.0000
     11 C11         0.2195    0.8307    0.9188 C.3       1 <0>         0.0000
     12 C12        -1.0001    1.1700    0.0549 C.3       1 <0>         0.0000
     13 C13         2.3649   -0.5352    1.2935 C.3       1 <0>         0.0000
     14 C14         1.1534   -0.2750    0.3710 C.3       1 <0>         0.0000
     15 C15        -3.3066    2.5373   -0.5169 C.3       1 <0>         0.0000
     16 N1          1.6681    0.0834   -0.9557 N.3       1 <0>         0.0000
     17 N2          1.4238   -0.2520    4.8674 N.am      1 <0>         0.0000
     18 N3          1.7877    0.0290    3.5734 N.am      1 <0>         0.0000
     19 O1          0.3313    1.7736    5.1279 O.2       1 <0>         0.0000
     20 O2          1.7602   -2.2018    2.9407 O.2       1 <0>         0.0000
     21 O3          3.2186   -1.5159    0.7230 O.3       1 <0>         0.0000
     22 S1         -2.0492    2.4644    0.7791 S.3       1 <0>         0.0000
     23 Cl1        -0.3417   -3.0616    9.0174 Cl        1 <0>         0.0000
     24 H1         -0.4110    1.7011    9.9690 H         1 <0>         0.0000
     25 H2          0.2105    2.3426    7.6662 H         1 <0>         0.0000
     26 H3         -0.6583   -0.6779   10.5776 H         1 <0>         0.0000
     27 H4          0.3474   -1.8109    6.5438 H         1 <0>         0.0000
     28 H5         -4.3764    4.2092    0.3452 H         1 <0>         0.0000
     29 H6         -5.3650    3.2137   -0.7256 H         1 <0>         0.0000
     30 H7         -4.9604    2.6385    0.9059 H         1 <0>         0.0000
     31 H8         -2.5401    4.3441   -1.4288 H         1 <0>         0.0000
     32 H9         -3.5004    3.3505   -2.5268 H         1 <0>         0.0000
     33 H10        -1.8438    2.8672   -2.1048 H         1 <0>         0.0000
     34 H11        -0.1531    0.5335    1.9082 H         1 <0>         0.0000
     35 H12         0.7975    1.7493    1.0822 H         1 <0>         0.0000
     36 H13        -1.6176    0.2727   -0.0585 H         1 <0>         0.0000
     37 H14        -0.7009    1.4813   -0.9501 H         1 <0>         0.0000
     38 H15         2.9484    0.3859    1.4229 H         1 <0>         0.0000
     39 H16         0.5915   -1.2082    0.2610 H         1 <0>         0.0000
     40 H17        -3.5264    1.5088   -0.8227 H         1 <0>         0.0000
     41 H18         0.8845    0.1717   -1.5934 H         1 <0>         0.0000
     42 H19         2.2416   -0.6802   -1.2969 H         1 <0>         0.0000
     43 H20         1.6871   -1.1312    5.2989 H         1 <0>         0.0000
     44 H21         1.9478    0.9869    3.2798 H         1 <0>         0.0000
     45 H22         2.7041   -2.3378    0.6655 H         1 <0>         0.0000
@<TRIPOS>BOND
     1    1    2 ar
     2    1    3 ar
     3    2    5 ar
     4    3    6 ar
     5    4    5 ar
     6    4    6 ar
     7    5    7 1
     8    6   23 1
     9    7   17 am
    10    7   19 2
    11    8   13 1
    12    8   18 am
    13    8   20 2
    14    9   15 1
    15   10   15 1
    16   11   12 1
    17   11   14 1
    18   12   22 1
    19   13   14 1
    20   13   21 1
    21   14   16 1
    22   15   22 1
    23   17   18 1
    24    1   24 1
    25    2   25 1
    26    3   26 1
    27    4   27 1
    28    9   28 1
    29    9   29 1
    30    9   30 1
    31   10   31 1
    32   10   32 1
    33   10   33 1
    34   11   34 1
    35   11   35 1
    36   12   36 1
    37   12   37 1
    38   13   38 1
    39   14   39 1
    40   15   40 1
    41   16   41 1
    42   16   42 1
    43   17   43 1
    44   18   44 1
    45   21   45 1
@<TRIPOS>MOLECULE
LIGAND
   45    45     0     0     0
SMALL
NO_CHARGES

@<TRIPOS>ATOM
      1 C1          2.3269   -0.7274    9.5675 C.ar      1 <0>         0.0000
      2 C2          2.7671   -0.4681    8.2696 C.ar      1 <0>         0.0000
      3 C3          1.0657   -1.2849    9.7779 C.ar      1 <0>         0.0000
      4 C4          0.6848   -1.3238    7.3925 C.ar      1 <0>         0.0000
      5 C5          1.9460   -0.7663    7.1821 C.ar      1 <0>         0.0000
      6 C6          0.2446   -1.5831    8.6904 C.ar      1 <0>         0.0000
      7 C7          2.4155   -0.4891    5.7998 C.2       1 <0>         0.0000
      8 C8          1.9325   -1.0133    2.6768 C.2       1 <0>         0.0000
      9 C9         -1.3566    4.2423   -1.1718 C.3       1 <0>         0.0000
     10 C10        -1.3823    5.0762    1.2040 C.3       1 <0>         0.0000
     11 C11         0.2195    0.8307    0.9188 C.3       1 <0>         0.0000
     12 C12        -1.0001    1.1700    0.0549 C.3       1 <0>         0.0000
     13 C13         2.3649   -0.5352    1.2935 C.3       1 <0>         0.0000
     14 C14         1.1534   -0.2750    0.3710 C.3       1 <0>         0.0000
     15 C15        -1.0699    3.9009    0.2855 C.3       1 <0>         0.0000
     16 N1          1.6681    0.0834   -0.9557 N.3       1 <0>         0.0000
     17 N2          1.4238   -0.2520    4.8674 N.am      1 <0>         0.0000
     18 N3          1.7877    0.0290    3.5734 N.am      1 <0>         0.0000
     19 O1          3.6213   -0.4699    5.5658 O.2       1 <0>         0.0000
     20 O2          1.7602   -2.2018    2.9407 O.2       1 <0>         0.0000
     21 O3          3.2186   -1.5159    0.7230 O.3       1 <0>         0.0000
     22 S1         -2.0492    2.4644    0.7791 S.3       1 <0>         0.0000
     23 Cl1        -1.3113   -2.2714    8.9508 Cl        1 <0>         0.0000
     24 H1          2.9664   -0.4955   10.4140 H         1 <0>         0.0000
     25 H2          3.7518   -0.0334    8.1183 H         1 <0>         0.0000
     26 H3          0.7362   -1.4814   10.7949 H         1 <0>         0.0000
     27 H4          0.0467   -1.5558    6.5422 H         1 <0>         0.0000
     28 H5         -2.4105    4.5137   -1.2989 H         1 <0>         0.0000
     29 H6         -0.7576    5.0967   -1.5064 H         1 <0>         0.0000
     30 H7         -1.1520    3.3963   -1.8378 H         1 <0>         0.0000
     31 H8         -2.4367    5.3604    1.1134 H         1 <0>         0.0000
     32 H9         -0.7841    5.9563    0.9431 H         1 <0>         0.0000
     33 H10        -1.1964    4.8333    2.2564 H         1 <0>         0.0000
     34 H11        -0.1531    0.5335    1.9082 H         1 <0>         0.0000
     35 H12         0.7975    1.7493    1.0822 H         1 <0>         0.0000
     36 H13        -1.6176    0.2727   -0.0585 H         1 <0>         0.0000
     37 H14        -0.7009    1.4813   -0.9501 H         1 <0>         0.0000
     38 H15         2.9484    0.3859    1.4229 H         1 <0>         0.0000
     39 H16         0.5915   -1.2082    0.2610 H         1 <0>         0.0000
     40 H17        -0.0132    3.6330    0.3910 H         1 <0>         0.0000
     41 H18         0.8845    0.1717   -1.5934 H         1 <0>         0.0000
     42 H19         2.2416   -0.6802   -1.2969 H         1 <0>         0.0000
     43 H20         0.4458   -0.2847    5.1337 H         1 <0>         0.0000
     44 H21         1.9478    0.9869    3.2798 H         1 <0>         0.0000
     45 H22         2.7041   -2.3378    0.6655 H         1 <0>         0.0000
@<TRIPOS>BOND
     1    1    2 ar
     2    1    3 ar
     3    2    5 ar
     4    3    6 ar
     5    4    5 ar
     6    4    6 ar
     7    5    7 1
     8    6   23 1
     9    7   17 am
    10    7   19 2
    11    8   13 1
    12    8   18 am
    13    8   20 2
    14    9   15 1
    15   10   15 1
    16   11   12 1
    17   11   14 1
    18   12   22 1
    19   13   14 1
    20   13   21 1
    21   14   16 1
    22   15   22 1
    23   17   18 1
    24    1   24 1
    25    2   25 1
    26    3   26 1
    27    4   27 1
    28    9   28 1
    29    9   29 1
    30    9   30 1
    31   10   31 1
    32   10   32 1
    33   10   33 1
    34   11   34 1
    35   11   35 1
    36   12   36 1
    37   12   37 1
    38   13   38 1
    39   14   39 1
    40   15   40 1
    41   16   41 1
    42   16   42 1
    43   17   43 1
    44   18   44 1
    45   21   45 1
@<TRIPOS>MOLECULE
LIGAND
   45    45     0     0     0
SMALL
NO_CHARGES

@<TRIPOS>ATOM
      1 C1          1.7274    0.4825    9.6814 C.ar      1 <0>         0.0000
      2 C2          2.0431    0.8764    8.3811 C.ar      1 <0>         0.0000
      3 C3          1.0216   -0.7006    9.8998 C.ar      1 <0>         0.0000
      4 C4          0.9471   -1.0959    7.5175 C.ar      1 <0>         0.0000
      5 C5          1.6530    0.0872    7.2991 C.ar      1 <0>         0.0000
      6 C6          0.6315   -1.4898    8.8178 C.ar      1 <0>         0.0000
      7 C7          1.9892    0.5079    5.9143 C.2       1 <0>         0.0000
      8 C8          1.9325   -1.0133    2.6768 C.2       1 <0>         0.0000
      9 C9          0.0309    6.1524    1.8816 C.3       1 <0>         0.0000
     10 C10         1.7102    4.7140    3.0862 C.3       1 <0>         0.0000
     11 C11         0.2195    0.8307    0.9188 C.3       1 <0>         0.0000
     12 C12         0.8590    2.2074    1.1305 C.3       1 <0>         0.0000
     13 C13         2.3649   -0.5352    1.2935 C.3       1 <0>         0.0000
     14 C14         1.1534   -0.2750    0.3710 C.3       1 <0>         0.0000
     15 C15         0.8241    4.8515    1.8540 C.3       1 <0>         0.0000
     16 N1          1.6681    0.0834   -0.9557 N.3       1 <0>         0.0000
     17 N2          2.1084   -0.5131    4.9911 N.am      1 <0>         0.0000
     18 N3          2.3999   -0.1941    3.6876 N.am      1 <0>         0.0000
     19 O1          2.1244    1.7030    5.6640 O.2       1 <0>         0.0000
     20 O2          1.2610   -2.0296    2.8442 O.2       1 <0>         0.0000
     21 O3          3.2186   -1.5159    0.7230 O.3       1 <0>         0.0000
     22 S1         -0.3102    3.4478    1.7590 S.3       1 <0>         0.0000
     23 Cl1        -0.2390   -2.9499    9.0881 Cl        1 <0>         0.0000
     24 H1          2.0316    1.0970   10.5236 H         1 <0>         0.0000
     25 H2          2.5934    1.8005    8.2236 H         1 <0>         0.0000
     26 H3          0.7827   -0.9948   10.9185 H         1 <0>         0.0000
     27 H4          0.6445   -1.7099    6.6716 H         1 <0>         0.0000
     28 H5         -0.6040    6.1923    2.7738 H         1 <0>         0.0000
     29 H6          0.6947    7.0236    1.9150 H         1 <0>         0.0000
     30 H7         -0.6232    6.2512    1.0077 H         1 <0>         0.0000
     31 H8          1.1011    4.7317    3.9969 H         1 <0>         0.0000
     32 H9          2.4261    5.5404    3.1569 H         1 <0>         0.0000
     33 H10         2.2708    3.7722    3.0836 H         1 <0>         0.0000
     34 H11        -0.6259    0.9652    0.2307 H         1 <0>         0.0000
     35 H12        -0.2197    0.5004    1.8688 H         1 <0>         0.0000
     36 H13         1.2423    2.5738    0.1722 H         1 <0>         0.0000
     37 H14         1.7108    2.1489    1.8142 H         1 <0>         0.0000
     38 H15         2.9484    0.3859    1.4229 H         1 <0>         0.0000
     39 H16         0.5915   -1.2082    0.2610 H         1 <0>         0.0000
     40 H17         1.4510    4.8315    0.9561 H         1 <0>         0.0000
     41 H18         0.8845    0.1717   -1.5934 H         1 <0>         0.0000
     42 H19         2.2416   -0.6802   -1.2969 H         1 <0>         0.0000
     43 H20         1.9830   -1.4798    5.2709 H         1 <0>         0.0000
     44 H21         2.9499    0.6302    3.4697 H         1 <0>         0.0000
     45 H22         2.7041   -2.3378    0.6655 H         1 <0>         0.0000
@<TRIPOS>BOND
     1    1    2 ar
     2    1    3 ar
     3    2    5 ar
     4    3    6 ar
     5    4    5 ar
     6    4    6 ar
     7    5    7 1
     8    6   23 1
     9    7   17 am
    10    7   19 2
    11    8   13 1
    12    8   18 am
    13    8   20 2
    14    9   15 1
    15   10   15 1
    16   11   12 1
    17   11   14 1
    18   12   22 1
    19   13   14 1
    20   13   21 1
    21   14   16 1
    22   15   22 1
    23   17   18 1
    24    1   24 1
    25    2   25 1
    26    3   26 1
    27    4   27 1
    28    9   28 1
    29    9   29 1
    30    9   30 1
    31   10   31 1
    32   10   32 1
    33   10   33 1
    34   11   34 1
    35   11   35 1
    36   12   36 1
    37   12   37 1
    38   13   38 1
    39   14   39 1
    40   15   40 1
    41   16   41 1
    42   16   42 1
    43   17   43 1
    44   18   44 1
    45   21   45 1
@<TRIPOS>MOLECULE
LIGAND
   45    45     0     0     0
SMALL
NO_CHARGES

@<TRIPOS>ATOM
      1 C1         -2.6241   -1.6244    7.8186 C.ar      1 <0>         0.0000
      2 C2         -2.2458   -1.3508    6.5042 C.ar      1 <0>         0.0000
      3 C3         -1.6506   -1.8141    8.7994 C.ar      1 <0>         0.0000
      4 C4          0.0795   -1.4566    7.1515 C.ar      1 <0>         0.0000
      5 C5         -0.8940   -1.2668    6.1707 C.ar      1 <0>         0.0000
      6 C6         -0.2989   -1.7302    8.4659 C.ar      1 <0>         0.0000
      7 C7         -0.4919   -0.9759    4.7701 C.2       1 <0>         0.0000
      8 C8          1.9325   -1.0133    2.6768 C.2       1 <0>         0.0000
      9 C9          2.1016    5.5550   -0.7655 C.3       1 <0>         0.0000
     10 C10         3.8195    4.0640    0.3143 C.3       1 <0>         0.0000
     11 C11         1.5761    0.1765   -1.0474 C.3       1 <0>         0.0000
     12 C12         2.3784    1.4800   -1.1273 C.3       1 <0>         0.0000
     13 C13         2.3649   -0.5352    1.2935 C.3       1 <0>         0.0000
     14 C14         1.1534   -0.2750    0.3710 C.3       1 <0>         0.0000
     15 C15         2.7418    4.1721   -0.7577 C.3       1 <0>         0.0000
     16 N1          0.3597   -1.5080    0.3138 N.3       1 <0>         0.0000
     17 N2          0.7320   -0.3536    4.6161 N.am      1 <0>         0.0000
     18 N3          1.1743   -0.0714    3.3469 N.am      1 <0>         0.0000
     19 O1         -1.2351   -1.3059    3.8493 O.2       1 <0>         0.0000
     20 O2          2.2555   -2.1109    3.1269 O.2       1 <0>         0.0000
     21 O3          3.2186   -1.5159    0.7230 O.3       1 <0>         0.0000
     22 S1          1.4741    2.9151   -0.4766 S.3       1 <0>         0.0000
     23 Cl1         0.9018   -1.9639    9.6768 Cl        1 <0>         0.0000
     24 H1         -3.6766   -1.6894    8.0781 H         1 <0>         0.0000
     25 H2         -3.0136   -1.2050    5.7487 H         1 <0>         0.0000
     26 H3         -1.9605   -2.0267    9.8194 H         1 <0>         0.0000
     27 H4          1.1333   -1.3900    6.8885 H         1 <0>         0.0000
     28 H5          1.6476    5.7697    0.2083 H         1 <0>         0.0000
     29 H6          2.8444    6.3372   -0.9581 H         1 <0>         0.0000
     30 H7          1.3123    5.6360   -1.5215 H         1 <0>         0.0000
     31 H8          3.3919    4.2558    1.3048 H         1 <0>         0.0000
     32 H9          4.6156    4.7998    0.1551 H         1 <0>         0.0000
     33 H10         4.2729    3.0665    0.3392 H         1 <0>         0.0000
     34 H11         2.1843   -0.6108   -1.5125 H         1 <0>         0.0000
     35 H12         0.6847    0.2765   -1.6798 H         1 <0>         0.0000
     36 H13         2.6151    1.6893   -2.1758 H         1 <0>         0.0000
     37 H14         3.3304    1.3937   -0.5957 H         1 <0>         0.0000
     38 H15         2.9484    0.3859    1.4229 H         1 <0>         0.0000
     39 H16         0.5249    0.4957    0.8291 H         1 <0>         0.0000
     40 H17         3.1890    3.9773   -1.7383 H         1 <0>         0.0000
     41 H18        -0.4842   -1.3249   -0.2178 H         1 <0>         0.0000
     42 H19         0.0690   -1.7492    1.2550 H         1 <0>         0.0000
     43 H20         1.2931   -0.1098    5.4249 H         1 <0>         0.0000
     44 H21         0.9480    0.8148    2.9078 H         1 <0>         0.0000
     45 H22         2.7041   -2.3378    0.6655 H         1 <0>         0.0000
@<TRIPOS>BOND
     1    1    2 ar
     2    1    3 ar
     3    2    5 ar
     4    3    6 ar
     5    4    5 ar
     6    4    6 ar
     7    5    7 1
     8    6   23 1
     9    7   17 am
    10    7   19 2
    11    8   13 1
    12    8   18 am
    13    8   20 2
    14    9   15 1
    15   10   15 1
    16   11   12 1
    17   11   14 1
    18   12   22 1
    19   13   14 1
    20   13   21 1
    21   14   16 1
    22   15   22 1
    23   17   18 1
    24    1   24 1
    25    2   25 1
    26    3   26 1
    27    4   27 1
    28    9   28 1
    29    9   29 1
    30    9   30 1
    31   10   31 1
    32   10   32 1
    33   10   33 1
    34   11   34 1
    35   11   35 1
    36   12   36 1
    37   12   37 1
    38   13   38 1
    39   14   39 1
    40   15   40 1
    41   16   41 1
    42   16   42 1
    43   17   43 1
    44   18   44 1
    45   21   45 1
@<TRIPOS>MOLECULE
LIGAND
   45    45     0     0     0
SMALL
NO_CHARGES

@<TRIPOS>ATOM
      1 C1         -0.7874   -0.7484    8.5279 C.ar      1 <0>         0.0000
      2 C2         -0.4100   -0.4763    7.2130 C.ar      1 <0>         0.0000
      3 C3         -1.6489   -1.8111    8.8006 C.ar      1 <0>         0.0000
      4 C4         -1.7555   -2.3295    6.4433 C.ar      1 <0>         0.0000
      5 C5         -0.8940   -1.2668    6.1707 C.ar      1 <0>         0.0000
      6 C6         -2.1330   -2.6016    7.7583 C.ar      1 <0>         0.0000
      7 C7         -0.4919   -0.9759    4.7701 C.2       1 <0>         0.0000
      8 C8          1.9325   -1.0133    2.6768 C.2       1 <0>         0.0000
      9 C9          2.1016    5.5550   -0.7655 C.3       1 <0>         0.0000
     10 C10         3.8195    4.0640    0.3143 C.3       1 <0>         0.0000
     11 C11         1.5761    0.1765   -1.0474 C.3       1 <0>         0.0000
     12 C12         2.3784    1.4800   -1.1273 C.3       1 <0>         0.0000
     13 C13         2.3649   -0.5352    1.2935 C.3       1 <0>         0.0000
     14 C14         1.1534   -0.2750    0.3710 C.3       1 <0>         0.0000
     15 C15         2.7418    4.1721   -0.7577 C.3       1 <0>         0.0000
     16 N1          0.3597   -1.5080    0.3138 N.3       1 <0>         0.0000
     17 N2          0.7320   -0.3536    4.6161 N.am      1 <0>         0.0000
     18 N3          1.1743   -0.0714    3.3469 N.am      1 <0>         0.0000
     19 O1         -1.2351   -1.3059    3.8493 O.2       1 <0>         0.0000
     20 O2          2.2555   -2.1109    3.1269 O.2       1 <0>         0.0000
     21 O3          3.2186   -1.5159    0.7230 O.3       1 <0>         0.0000
     22 S1          1.4741    2.9151   -0.4766 S.3       1 <0>         0.0000
     23 Cl1        -3.1956   -3.9130    8.0955 Cl        1 <0>         0.0000
     24 H1         -0.4102   -0.1330    9.3393 H         1 <0>         0.0000
     25 H2          0.2618    0.3545    7.0131 H         1 <0>         0.0000
     26 H3         -1.9343   -2.0111    9.8301 H         1 <0>         0.0000
     27 H4         -2.1312   -2.9448    5.6282 H         1 <0>         0.0000
     28 H5          1.6476    5.7697    0.2083 H         1 <0>         0.0000
     29 H6          2.8444    6.3372   -0.9581 H         1 <0>         0.0000
     30 H7          1.3123    5.6360   -1.5215 H         1 <0>         0.0000
     31 H8          3.3919    4.2558    1.3048 H         1 <0>         0.0000
     32 H9          4.6156    4.7998    0.1551 H         1 <0>         0.0000
     33 H10         4.2729    3.0665    0.3392 H         1 <0>         0.0000
     34 H11         2.1843   -0.6108   -1.5125 H         1 <0>         0.0000
     35 H12         0.6847    0.2765   -1.6798 H         1 <0>         0.0000
     36 H13         2.6151    1.6893   -2.1758 H         1 <0>         0.0000
     37 H14         3.3304    1.3937   -0.5957 H         1 <0>         0.0000
     38 H15         2.9484    0.3859    1.4229 H         1 <0>         0.0000
     39 H16         0.5249    0.4957    0.8291 H         1 <0>         0.0000
     40 H17         3.1890    3.9773   -1.7383 H         1 <0>         0.0000
     41 H18        -0.4842   -1.3249   -0.2178 H         1 <0>         0.0000
     42 H19         0.0690   -1.7492    1.2550 H         1 <0>         0.0000
     43 H20         1.2931   -0.1098    5.4249 H         1 <0>         0.0000
     44 H21         0.9480    0.8148    2.9078 H         1 <0>         0.0000
     45 H22         2.7041   -2.3378    0.6655 H         1 <0>         0.0000
@<TRIPOS>BOND
     1    1    2 ar
     2    1    3 ar
     3    2    5 ar
     4    3    6 ar
     5    4    5 ar
     6    4    6 ar
     7    5    7 1
     8    6   23 1
     9    7   17 am
    10    7   19 2
    11    8   13 1
    12    8   18 am
    13    8   20 2
    14    9   15 1
    15   10   15 1
    16   11   12 1
    17   11   14 1
    18   12   22 1
    19   13   14 1
    20   13   21 1
    21   14   16 1
    22   15   22 1
    23   17   18 1
    24    1   24 1
    25    2   25 1
    26    3   26 1
    27    4   27 1
    28    9   28 1
    29    9   29 1
    30    9   30 1
    31   10   31 1
    32   10   32 1
    33   10   33 1
    34   11   34 1
    35   11   35 1
    36   12   36 1
    37   12   37 1
    38   13   38 1
    39   14   39 1
    40   15   40 1
    41   16   41 1
    42   16   42 1
    43   17   43 1
    44   18   44 1
    45   21   45 1
@<TRIPOS>MOLECULE
LIGAND
   45    45     0     0     0
SMALL
NO_CHARGES

@<TRIPOS>ATOM
      1 C1          2.2867   -1.8006    9.3387 C.ar      1 <0>         0.0000
      2 C2          2.7263   -1.5405    8.0408 C.ar      1 <0>         0.0000
      3 C3          1.0666   -1.2866    9.7779 C.ar      1 <0>         0.0000
      4 C4          0.7260   -0.2522    7.6213 C.ar      1 <0>         0.0000
      5 C5          1.9460   -0.7663    7.1821 C.ar      1 <0>         0.0000
      6 C6          0.2863   -0.5124    8.9192 C.ar      1 <0>         0.0000
      7 C7          2.4155   -0.4891    5.7998 C.2       1 <0>         0.0000
      8 C8          1.9325   -1.0133    2.6768 C.2       1 <0>         0.0000
      9 C9         -1.3566    4.2423   -1.1718 C.3       1 <0>         0.0000
     10 C10        -1.3823    5.0762    1.2040 C.3       1 <0>         0.0000
     11 C11         0.2195    0.8307    0.9188 C.3       1 <0>         0.0000
     12 C12        -1.0001    1.1700    0.0549 C.3       1 <0>         0.0000
     13 C13         2.3649   -0.5352    1.2935 C.3       1 <0>         0.0000
     14 C14         1.1534   -0.2750    0.3710 C.3       1 <0>         0.0000
     15 C15        -1.0699    3.9009    0.2855 C.3       1 <0>         0.0000
     16 N1          1.6681    0.0834   -0.9557 N.3       1 <0>         0.0000
     17 N2          1.4238   -0.2520    4.8674 N.am      1 <0>         0.0000
     18 N3          1.7877    0.0290    3.5734 N.am      1 <0>         0.0000
     19 O1          3.6213   -0.4699    5.5658 O.2       1 <0>         0.0000
     20 O2          1.7602   -2.2018    2.9407 O.2       1 <0>         0.0000
     21 O3          3.2186   -1.5159    0.7230 O.3       1 <0>         0.0000
     22 S1         -2.0492    2.4644    0.7791 S.3       1 <0>         0.0000
     23 Cl1        -1.2194    0.1212    9.4617 Cl        1 <0>         0.0000
     24 H1          2.8942   -2.4037   10.0070 H         1 <0>         0.0000
     25 H2          3.6789   -1.9464    7.7100 H         1 <0>         0.0000
     26 H3          0.7369   -1.4976   10.7919 H         1 <0>         0.0000
     27 H4          0.1191    0.3510    6.9490 H         1 <0>         0.0000
     28 H5         -2.4105    4.5137   -1.2989 H         1 <0>         0.0000
     29 H6         -0.7576    5.0967   -1.5064 H         1 <0>         0.0000
     30 H7         -1.1520    3.3963   -1.8378 H         1 <0>         0.0000
     31 H8         -2.4367    5.3604    1.1134 H         1 <0>         0.0000
     32 H9         -0.7841    5.9563    0.9431 H         1 <0>         0.0000
     33 H10        -1.1964    4.8333    2.2564 H         1 <0>         0.0000
     34 H11        -0.1531    0.5335    1.9082 H         1 <0>         0.0000
     35 H12         0.7975    1.7493    1.0822 H         1 <0>         0.0000
     36 H13        -1.6176    0.2727   -0.0585 H         1 <0>         0.0000
     37 H14        -0.7009    1.4813   -0.9501 H         1 <0>         0.0000
     38 H15         2.9484    0.3859    1.4229 H         1 <0>         0.0000
     39 H16         0.5915   -1.2082    0.2610 H         1 <0>         0.0000
     40 H17        -0.0132    3.6330    0.3910 H         1 <0>         0.0000
     41 H18         0.8845    0.1717   -1.5934 H         1 <0>         0.0000
     42 H19         2.2416   -0.6802   -1.2969 H         1 <0>         0.0000
     43 H20         0.4458   -0.2847    5.1337 H         1 <0>         0.0000
     44 H21         1.9478    0.9869    3.2798 H         1 <0>         0.0000
     45 H22         2.7041   -2.3378    0.6655 H         1 <0>         0.0000
@<TRIPOS>BOND
     1    1    2 ar
     2    1    3 ar
     3    2    5 ar
     4    3    6 ar
     5    4    5 ar
     6    4    6 ar
     7    5    7 1
     8    6   23 1
     9    7   17 am
    10    7   19 2
    11    8   13 1
    12    8   18 am
    13    8   20 2
    14    9   15 1
    15   10   15 1
    16   11   12 1
    17   11   14 1
    18   12   22 1
    19   13   14 1
    20   13   21 1
    21   14   16 1
    22   15   22 1
    23   17   18 1
    24    1   24 1
    25    2   25 1
    26    3   26 1
    27    4   27 1
    28    9   28 1
    29    9   29 1
    30    9   30 1
    31   10   31 1
    32   10   32 1
    33   10   33 1
    34   11   34 1
    35   11   35 1
    36   12   36 1
    37   12   37 1
    38   13   38 1
    39   14   39 1
    40   15   40 1
    41   16   41 1
    42   16   42 1
    43   17   43 1
    44   18   44 1
    45   21   45 1
@<TRIPOS>MOLECULE
LIGAND
   45    45     0     0     0
SMALL
NO_CHARGES

@<TRIPOS>ATOM
      1 C1          0.6903   -1.4334    8.8465 C.ar      1 <0>         0.0000
      2 C2          1.1123   -1.0980    7.5601 C.ar      1 <0>         0.0000
      3 C3          0.5659   -0.4424    9.8203 C.ar      1 <0>         0.0000
      4 C4          1.2856    1.2194    8.2211 C.ar      1 <0>         0.0000
      5 C5          1.4099    0.2284    7.2473 C.ar      1 <0>         0.0000
      6 C6          0.8636    0.8839    9.5076 C.ar      1 <0>         0.0000
      7 C7          1.8600    0.5847    5.8768 C.2       1 <0>         0.0000
      8 C8          1.9325   -1.0133    2.6768 C.2       1 <0>         0.0000
      9 C9         -3.5953   -0.8020   -2.4330 C.3       1 <0>         0.0000
     10 C10        -4.0047    1.3935   -1.2699 C.3       1 <0>         0.0000
     11 C11         0.2195    0.8307    0.9188 C.3       1 <0>         0.0000
     12 C12        -1.0001    1.1700    0.0549 C.3       1 <0>         0.0000
     13 C13         2.3649   -0.5352    1.2935 C.3       1 <0>         0.0000
     14 C14         1.1534   -0.2750    0.3710 C.3       1 <0>         0.0000
     15 C15        -2.9606    0.3632   -1.6834 C.3       1 <0>         0.0000
     16 N1          1.6681    0.0834   -0.9557 N.3       1 <0>         0.0000
     17 N2          1.4238   -0.2520    4.8674 N.am      1 <0>         0.0000
     18 N3          1.7877    0.0290    3.5734 N.am      1 <0>         0.0000
     19 O1          2.5607    1.5803    5.7128 O.2       1 <0>         0.0000
     20 O2          1.7602   -2.2018    2.9407 O.2       1 <0>         0.0000
     21 O3          3.2186   -1.5159    0.7230 O.3       1 <0>         0.0000
     22 S1         -2.0977   -0.2515   -0.2193 S.3       1 <0>         0.0000
     23 Cl1         0.7094    2.1063   10.7095 Cl        1 <0>         0.0000
     24 H1          0.4583   -2.4661    9.0897 H         1 <0>         0.0000
     25 H2          1.2054   -1.8791    6.8098 H         1 <0>         0.0000
     26 H3          0.2360   -0.7187   10.8184 H         1 <0>         0.0000
     27 H4          1.5180    2.2533    7.9741 H         1 <0>         0.0000
     28 H5         -4.3436   -1.2969   -1.8040 H         1 <0>         0.0000
     29 H6         -4.1065   -0.4613   -3.3404 H         1 <0>         0.0000
     30 H7         -2.8540   -1.5571   -2.7183 H         1 <0>         0.0000
     31 H8         -4.7593    0.9323   -0.6229 H         1 <0>         0.0000
     32 H9         -4.5284    1.8023   -2.1412 H         1 <0>         0.0000
     33 H10        -3.5593    2.2264   -0.7139 H         1 <0>         0.0000
     34 H11        -0.1531    0.5335    1.9082 H         1 <0>         0.0000
     35 H12         0.7975    1.7493    1.0822 H         1 <0>         0.0000
     36 H13        -0.6573    1.5138   -0.9268 H         1 <0>         0.0000
     37 H14        -1.5832    1.9849    0.4933 H         1 <0>         0.0000
     38 H15         2.9484    0.3859    1.4229 H         1 <0>         0.0000
     39 H16         0.5915   -1.2082    0.2610 H         1 <0>         0.0000
     40 H17        -2.2171    0.8435   -2.3283 H         1 <0>         0.0000
     41 H18         0.8845    0.1717   -1.5934 H         1 <0>         0.0000
     42 H19         2.2416   -0.6802   -1.2969 H         1 <0>         0.0000
     43 H20         0.8460   -1.0583    5.0782 H         1 <0>         0.0000
     44 H21         1.9478    0.9869    3.2798 H         1 <0>         0.0000
     45 H22         2.7041   -2.3378    0.6655 H         1 <0>         0.0000
@<TRIPOS>BOND
     1    1    2 ar
     2    1    3 ar
     3    2    5 ar
     4    3    6 ar
     5    4    5 ar
     6    4    6 ar
     7    5    7 1
     8    6   23 1
     9    7   17 am
    10    7   19 2
    11    8   13 1
    12    8   18 am
    13    8   20 2
    14    9   15 1
    15   10   15 1
    16   11   12 1
    17   11   14 1
    18   12   22 1
    19   13   14 1
    20   13   21 1
    21   14   16 1
    22   15   22 1
    23   17   18 1
    24    1   24 1
    25    2   25 1
    26    3   26 1
    27    4   27 1
    28    9   28 1
    29    9   29 1
    30    9   30 1
    31   10   31 1
    32   10   32 1
    33   10   33 1
    34   11   34 1
    35   11   35 1
    36   12   36 1
    37   12   37 1
    38   13   38 1
    39   14   39 1
    40   15   40 1
    41   16   41 1
    42   16   42 1
    43   17   43 1
    44   18   44 1
    45   21   45 1
@<TRIPOS>MOLECULE
LIGAND
   45    45     0     0     0
SMALL
NO_CHARGES

@<TRIPOS>ATOM
      1 C1          0.7616   -0.9565    8.9701 C.ar      1 <0>         0.0000
      2 C2          1.1113   -0.5972    7.6686 C.ar      1 <0>         0.0000
      3 C3         -0.3809   -0.4156    9.5599 C.ar      1 <0>         0.0000
      4 C4         -0.8238    0.8441    7.5465 C.ar      1 <0>         0.0000
      5 C5          0.3186    0.3032    6.9567 C.ar      1 <0>         0.0000
      6 C6         -1.1736    0.4847    8.8481 C.ar      1 <0>         0.0000
      7 C7          0.6923    0.6859    5.5704 C.2       1 <0>         0.0000
      8 C8          1.9325   -1.0133    2.6768 C.2       1 <0>         0.0000
      9 C9         -3.5456    2.3208    3.0565 C.3       1 <0>         0.0000
     10 C10        -4.0220    0.6377    1.2453 C.3       1 <0>         0.0000
     11 C11         0.2195    0.8307    0.9188 C.3       1 <0>         0.0000
     12 C12        -1.0001    1.1700    0.0549 C.3       1 <0>         0.0000
     13 C13         2.3649   -0.5352    1.2935 C.3       1 <0>         0.0000
     14 C14         1.1534   -0.2750    0.3710 C.3       1 <0>         0.0000
     15 C15        -2.9459    1.4397    1.9673 C.3       1 <0>         0.0000
     16 N1          1.6681    0.0834   -0.9557 N.3       1 <0>         0.0000
     17 N2          1.4238   -0.2520    4.8674 N.am      1 <0>         0.0000
     18 N3          1.7877    0.0290    3.5734 N.am      1 <0>         0.0000
     19 O1          0.3313    1.7736    5.1279 O.2       1 <0>         0.0000
     20 O2          1.7602   -2.2018    2.9407 O.2       1 <0>         0.0000
     21 O3          3.2186   -1.5159    0.7230 O.3       1 <0>         0.0000
     22 S1         -2.0492    2.4644    0.7791 S.3       1 <0>         0.0000
     23 Cl1        -2.5835    1.1514    9.5763 Cl        1 <0>         0.0000
     24 H1          1.3787   -1.6577    9.5240 H         1 <0>         0.0000
     25 H2          2.0040   -1.0253    7.2198 H         1 <0>         0.0000
     26 H3         -0.6409   -0.7049   10.5749 H         1 <0>         0.0000
     27 H4         -1.4407    1.5458    6.9886 H         1 <0>         0.0000
     28 H5         -4.2705    3.0197    2.6246 H         1 <0>         0.0000
     29 H6         -4.0763    1.7229    3.8059 H         1 <0>         0.0000
     30 H7         -2.7806    2.9152    3.5690 H         1 <0>         0.0000
     31 H8         -4.7543    1.3108    0.7855 H         1 <0>         0.0000
     32 H9         -4.5673   -0.0125    1.9385 H         1 <0>         0.0000
     33 H10        -3.6015    0.0146    0.4477 H         1 <0>         0.0000
     34 H11        -0.1531    0.5335    1.9082 H         1 <0>         0.0000
     35 H12         0.7975    1.7493    1.0822 H         1 <0>         0.0000
     36 H13        -1.6176    0.2727   -0.0585 H         1 <0>         0.0000
     37 H14        -0.7009    1.4813   -0.9501 H         1 <0>         0.0000
     38 H15         2.9484    0.3859    1.4229 H         1 <0>         0.0000
     39 H16         0.5915   -1.2082    0.2610 H         1 <0>         0.0000
     40 H17        -2.2253    0.7496    2.4190 H         1 <0>         0.0000
     41 H18         0.8845    0.1717   -1.5934 H         1 <0>         0.0000
     42 H19         2.2416   -0.6802   -1.2969 H         1 <0>         0.0000
     43 H20         1.6871   -1.1312    5.2989 H         1 <0>         0.0000
     44 H21         1.9478    0.9869    3.2798 H         1 <0>         0.0000
     45 H22         2.7041   -2.3378    0.6655 H         1 <0>         0.0000
@<TRIPOS>BOND
     1    1    2 ar
     2    1    3 ar
     3    2    5 ar
     4    3    6 ar
     5    4    5 ar
     6    4    6 ar
     7    5    7 1
     8    6   23 1
     9    7   17 am
    10    7   19 2
    11    8   13 1
    12    8   18 am
    13    8   20 2
    14    9   15 1
    15   10   15 1
    16   11   12 1
    17   11   14 1
    18   12   22 1
    19   13   14 1
    20   13   21 1
    21   14   16 1
    22   15   22 1
    23   17   18 1
    24    1   24 1
    25    2   25 1
    26    3   26 1
    27    4   27 1
    28    9   28 1
    29    9   29 1
    30    9   30 1
    31   10   31 1
    32   10   32 1
    33   10   33 1
    34   11   34 1
    35   11   35 1
    36   12   36 1
    37   12   37 1
    38   13   38 1
    39   14   39 1
    40   15   40 1
    41   16   41 1
    42   16   42 1
    43   17   43 1
    44   18   44 1
    45   21   45 1
@<TRIPOS>MOLECULE
LIGAND
   45    45     0     0     0
SMALL
NO_CHARGES

@<TRIPOS>ATOM
      1 C1          3.3047   -0.8664    9.7081 C.ar      1 <0>         0.0000
      2 C2          3.6057   -0.4258    8.4194 C.ar      1 <0>         0.0000
      3 C3          2.1622   -1.6344    9.9335 C.ar      1 <0>         0.0000
      4 C4          1.6219   -1.5209    7.5815 C.ar      1 <0>         0.0000
      5 C5          2.7643   -0.7530    7.3561 C.ar      1 <0>         0.0000
      6 C6          1.3208   -1.9616    8.8702 C.ar      1 <0>         0.0000
      7 C7          3.0854   -0.2826    5.9837 C.2       1 <0>         0.0000
      8 C8          1.9325   -1.0133    2.6768 C.2       1 <0>         0.0000
      9 C9         -2.8396    0.6809   -2.6742 C.3       1 <0>         0.0000
     10 C10        -4.6560   -0.1960   -1.1670 C.3       1 <0>         0.0000
     11 C11         0.2195    0.8307    0.9188 C.3       1 <0>         0.0000
     12 C12        -1.0001    1.1700    0.0549 C.3       1 <0>         0.0000
     13 C13         2.3649   -0.5352    1.2935 C.3       1 <0>         0.0000
     14 C14         1.1534   -0.2750    0.3710 C.3       1 <0>         0.0000
     15 C15        -3.3416    0.5718   -1.2395 C.3       1 <0>         0.0000
     16 N1          1.6681    0.0834   -0.9557 N.3       1 <0>         0.0000
     17 N2          2.6023   -1.0670    4.9540 N.am      1 <0>         0.0000
     18 N3          2.8469   -0.6810    3.6590 N.am      1 <0>         0.0000
     19 O1          3.7293    0.7533    5.8374 O.2       1 <0>         0.0000
     20 O2          0.8915   -1.6405    2.8632 O.2       1 <0>         0.0000
     21 O3          3.2186   -1.5159    0.7230 O.3       1 <0>         0.0000
     22 S1         -2.0977   -0.2515   -0.2193 S.3       1 <0>         0.0000
     23 Cl1        -0.0884   -2.9097    9.1490 Cl        1 <0>         0.0000
     24 H1          3.9601   -0.6118   10.5358 H         1 <0>         0.0000
     25 H2          4.4987    0.1721    8.2563 H         1 <0>         0.0000
     26 H3          1.9405   -1.9706   10.9431 H         1 <0>         0.0000
     27 H4          0.9676   -1.7751    6.7500 H         1 <0>         0.0000
     28 H5         -2.6847   -0.3167   -3.1002 H         1 <0>         0.0000
     29 H6         -3.5648    1.1984   -3.3121 H         1 <0>         0.0000
     30 H7         -1.8850    1.2160   -2.7338 H         1 <0>         0.0000
     31 H8         -4.5291   -1.2071   -1.5698 H         1 <0>         0.0000
     32 H9         -5.4375    0.2943   -1.7580 H         1 <0>         0.0000
     33 H10        -5.0153   -0.2952   -0.1363 H         1 <0>         0.0000
     34 H11        -0.1531    0.5335    1.9082 H         1 <0>         0.0000
     35 H12         0.7975    1.7493    1.0822 H         1 <0>         0.0000
     36 H13        -0.6573    1.5138   -0.9268 H         1 <0>         0.0000
     37 H14        -1.5832    1.9849    0.4933 H         1 <0>         0.0000
     38 H15         2.9484    0.3859    1.4229 H         1 <0>         0.0000
     39 H16         0.5915   -1.2082    0.2610 H         1 <0>         0.0000
     40 H17        -3.4899    1.5778   -0.8328 H         1 <0>         0.0000
     41 H18         0.8845    0.1717   -1.5934 H         1 <0>         0.0000
     42 H19         2.2416   -0.6802   -1.2969 H         1 <0>         0.0000
     43 H20         2.0769   -1.9119    5.1509 H         1 <0>         0.0000
     44 H21         3.6858   -0.1599    3.4266 H         1 <0>         0.0000
     45 H22         2.7041   -2.3378    0.6655 H         1 <0>         0.0000
@<TRIPOS>BOND
     1    1    2 ar
     2    1    3 ar
     3    2    5 ar
     4    3    6 ar
     5    4    5 ar
     6    4    6 ar
     7    5    7 1
     8    6   23 1
     9    7   17 am
    10    7   19 2
    11    8   13 1
    12    8   18 am
    13    8   20 2
    14    9   15 1
    15   10   15 1
    16   11   12 1
    17   11   14 1
    18   12   22 1
    19   13   14 1
    20   13   21 1
    21   14   16 1
    22   15   22 1
    23   17   18 1
    24    1   24 1
    25    2   25 1
    26    3   26 1
    27    4   27 1
    28    9   28 1
    29    9   29 1
    30    9   30 1
    31   10   31 1
    32   10   32 1
    33   10   33 1
    34   11   34 1
    35   11   35 1
    36   12   36 1
    37   12   37 1
    38   13   38 1
    39   14   39 1
    40   15   40 1
    41   16   41 1
    42   16   42 1
    43   17   43 1
    44   18   44 1
    45   21   45 1
@<TRIPOS>MOLECULE
LIGAND
   45    45     0     0     0
SMALL
NO_CHARGES

@<TRIPOS>ATOM
      1 C1         -2.6241   -1.6244    7.8186 C.ar      1 <0>         0.0000
      2 C2         -2.2458   -1.3508    6.5042 C.ar      1 <0>         0.0000
      3 C3         -1.6506   -1.8141    8.7994 C.ar      1 <0>         0.0000
      4 C4          0.0795   -1.4566    7.1515 C.ar      1 <0>         0.0000
      5 C5         -0.8940   -1.2668    6.1707 C.ar      1 <0>         0.0000
      6 C6         -0.2989   -1.7302    8.4659 C.ar      1 <0>         0.0000
      7 C7         -0.4919   -0.9759    4.7701 C.2       1 <0>         0.0000
      8 C8          1.9325   -1.0133    2.6768 C.2       1 <0>         0.0000
      9 C9          2.7221    4.6042   -2.2190 C.3       1 <0>         0.0000
     10 C10         2.5092    5.3544    0.1752 C.3       1 <0>         0.0000
     11 C11         1.5761    0.1765   -1.0474 C.3       1 <0>         0.0000
     12 C12         2.3784    1.4800   -1.1273 C.3       1 <0>         0.0000
     13 C13         2.3649   -0.5352    1.2935 C.3       1 <0>         0.0000
     14 C14         1.1534   -0.2750    0.3710 C.3       1 <0>         0.0000
     15 C15         2.7418    4.1721   -0.7577 C.3       1 <0>         0.0000
     16 N1          0.3597   -1.5080    0.3138 N.3       1 <0>         0.0000
     17 N2          0.7320   -0.3536    4.6161 N.am      1 <0>         0.0000
     18 N3          1.1743   -0.0714    3.3469 N.am      1 <0>         0.0000
     19 O1         -1.2351   -1.3059    3.8493 O.2       1 <0>         0.0000
     20 O2          2.2555   -2.1109    3.1269 O.2       1 <0>         0.0000
     21 O3          3.2186   -1.5159    0.7230 O.3       1 <0>         0.0000
     22 S1          1.4741    2.9151   -0.4766 S.3       1 <0>         0.0000
     23 Cl1         0.9018   -1.9639    9.6768 Cl        1 <0>         0.0000
     24 H1         -3.6766   -1.6894    8.0781 H         1 <0>         0.0000
     25 H2         -3.0136   -1.2050    5.7487 H         1 <0>         0.0000
     26 H3         -1.9605   -2.0267    9.8194 H         1 <0>         0.0000
     27 H4          1.1333   -1.3900    6.8885 H         1 <0>         0.0000
     28 H5          1.7574    5.0604   -2.4680 H         1 <0>         0.0000
     29 H6          3.4979    5.3502   -2.4247 H         1 <0>         0.0000
     30 H7          2.8703    3.7569   -2.8981 H         1 <0>         0.0000
     31 H8          1.5412    5.8221   -0.0370 H         1 <0>         0.0000
     32 H9          3.2784    6.1235    0.0438 H         1 <0>         0.0000
     33 H10         2.5035    5.0496    1.2280 H         1 <0>         0.0000
     34 H11         2.1843   -0.6108   -1.5125 H         1 <0>         0.0000
     35 H12         0.6847    0.2765   -1.6798 H         1 <0>         0.0000
     36 H13         2.6151    1.6893   -2.1758 H         1 <0>         0.0000
     37 H14         3.3304    1.3937   -0.5957 H         1 <0>         0.0000
     38 H15         2.9484    0.3859    1.4229 H         1 <0>         0.0000
     39 H16         0.5249    0.4957    0.8291 H         1 <0>         0.0000
     40 H17         3.7127    3.7195   -0.5296 H         1 <0>         0.0000
     41 H18        -0.4842   -1.3249   -0.2178 H         1 <0>         0.0000
     42 H19         0.0690   -1.7492    1.2550 H         1 <0>         0.0000
     43 H20         1.2931   -0.1098    5.4249 H         1 <0>         0.0000
     44 H21         0.9480    0.8148    2.9078 H         1 <0>         0.0000
     45 H22         2.7041   -2.3378    0.6655 H         1 <0>         0.0000
@<TRIPOS>BOND
     1    1    2 ar
     2    1    3 ar
     3    2    5 ar
     4    3    6 ar
     5    4    5 ar
     6    4    6 ar
     7    5    7 1
     8    6   23 1
     9    7   17 am
    10    7   19 2
    11    8   13 1
    12    8   18 am
    13    8   20 2
    14    9   15 1
    15   10   15 1
    16   11   12 1
    17   11   14 1
    18   12   22 1
    19   13   14 1
    20   13   21 1
    21   14   16 1
    22   15   22 1
    23   17   18 1
    24    1   24 1
    25    2   25 1
    26    3   26 1
    27    4   27 1
    28    9   28 1
    29    9   29 1
    30    9   30 1
    31   10   31 1
    32   10   32 1
    33   10   33 1
    34   11   34 1
    35   11   35 1
    36   12   36 1
    37   12   37 1
    38   13   38 1
    39   14   39 1
    40   15   40 1
    41   16   41 1
    42   16   42 1
    43   17   43 1
    44   18   44 1
    45   21   45 1
@<TRIPOS>MOLECULE
LIGAND
   45    45     0     0     0
SMALL
NO_CHARGES

@<TRIPOS>ATOM
      1 C1         -0.7874   -0.7484    8.5279 C.ar      1 <0>         0.0000
      2 C2         -0.4100   -0.4763    7.2130 C.ar      1 <0>         0.0000
      3 C3         -1.6489   -1.8111    8.8006 C.ar      1 <0>         0.0000
      4 C4         -1.7555   -2.3295    6.4433 C.ar      1 <0>         0.0000
      5 C5         -0.8940   -1.2668    6.1707 C.ar      1 <0>         0.0000
      6 C6         -2.1330   -2.6016    7.7583 C.ar      1 <0>         0.0000
      7 C7         -0.4919   -0.9759    4.7701 C.2       1 <0>         0.0000
      8 C8          1.9325   -1.0133    2.6768 C.2       1 <0>         0.0000
      9 C9          2.7221    4.6042   -2.2190 C.3       1 <0>         0.0000
     10 C10         2.5092    5.3544    0.1752 C.3       1 <0>         0.0000
     11 C11         1.5761    0.1765   -1.0474 C.3       1 <0>         0.0000
     12 C12         2.3784    1.4800   -1.1273 C.3       1 <0>         0.0000
     13 C13         2.3649   -0.5352    1.2935 C.3       1 <0>         0.0000
     14 C14         1.1534   -0.2750    0.3710 C.3       1 <0>         0.0000
     15 C15         2.7418    4.1721   -0.7577 C.3       1 <0>         0.0000
     16 N1          0.3597   -1.5080    0.3138 N.3       1 <0>         0.0000
     17 N2          0.7320   -0.3536    4.6161 N.am      1 <0>         0.0000
     18 N3          1.1743   -0.0714    3.3469 N.am      1 <0>         0.0000
     19 O1         -1.2351   -1.3059    3.8493 O.2       1 <0>         0.0000
     20 O2          2.2555   -2.1109    3.1269 O.2       1 <0>         0.0000
     21 O3          3.2186   -1.5159    0.7230 O.3       1 <0>         0.0000
     22 S1          1.4741    2.9151   -0.4766 S.3       1 <0>         0.0000
     23 Cl1        -3.1956   -3.9130    8.0955 Cl        1 <0>         0.0000
     24 H1         -0.4102   -0.1330    9.3393 H         1 <0>         0.0000
     25 H2          0.2618    0.3545    7.0131 H         1 <0>         0.0000
     26 H3         -1.9343   -2.0111    9.8301 H         1 <0>         0.0000
     27 H4         -2.1312   -2.9448    5.6282 H         1 <0>         0.0000
     28 H5          1.7574    5.0604   -2.4680 H         1 <0>         0.0000
     29 H6          3.4979    5.3502   -2.4247 H         1 <0>         0.0000
     30 H7          2.8703    3.7569   -2.8981 H         1 <0>         0.0000
     31 H8          1.5412    5.8221   -0.0370 H         1 <0>         0.0000
     32 H9          3.2784    6.1235    0.0438 H         1 <0>         0.0000
     33 H10         2.5035    5.0496    1.2280 H         1 <0>         0.0000
     34 H11         2.1843   -0.6108   -1.5125 H         1 <0>         0.0000
     35 H12         0.6847    0.2765   -1.6798 H         1 <0>         0.0000
     36 H13         2.6151    1.6893   -2.1758 H         1 <0>         0.0000
     37 H14         3.3304    1.3937   -0.5957 H         1 <0>         0.0000
     38 H15         2.9484    0.3859    1.4229 H         1 <0>         0.0000
     39 H16         0.5249    0.4957    0.8291 H         1 <0>         0.0000
     40 H17         3.7127    3.7195   -0.5296 H         1 <0>         0.0000
     41 H18        -0.4842   -1.3249   -0.2178 H         1 <0>         0.0000
     42 H19         0.0690   -1.7492    1.2550 H         1 <0>         0.0000
     43 H20         1.2931   -0.1098    5.4249 H         1 <0>         0.0000
     44 H21         0.9480    0.8148    2.9078 H         1 <0>         0.0000
     45 H22         2.7041   -2.3378    0.6655 H         1 <0>         0.0000
@<TRIPOS>BOND
     1    1    2 ar
     2    1    3 ar
     3    2    5 ar
     4    3    6 ar
     5    4    5 ar
     6    4    6 ar
     7    5    7 1
     8    6   23 1
     9    7   17 am
    10    7   19 2
    11    8   13 1
    12    8   18 am
    13    8   20 2
    14    9   15 1
    15   10   15 1
    16   11   12 1
    17   11   14 1
    18   12   22 1
    19   13   14 1
    20   13   21 1
    21   14   16 1
    22   15   22 1
    23   17   18 1
    24    1   24 1
    25    2   25 1
    26    3   26 1
    27    4   27 1
    28    9   28 1
    29    9   29 1
    30    9   30 1
    31   10   31 1
    32   10   32 1
    33   10   33 1
    34   11   34 1
    35   11   35 1
    36   12   36 1
    37   12   37 1
    38   13   38 1
    39   14   39 1
    40   15   40 1
    41   16   41 1
    42   16   42 1
    43   17   43 1
    44   18   44 1
    45   21   45 1
@<TRIPOS>MOLECULE
LIGAND
   45    45     0     0     0
SMALL
NO_CHARGES

@<TRIPOS>ATOM
      1 C1         -1.7508   -1.5308    8.2465 C.ar      1 <0>         0.0000
      2 C2         -1.4530   -1.2202    6.9197 C.ar      1 <0>         0.0000
      3 C3         -0.8322   -1.2379    9.2545 C.ar      1 <0>         0.0000
      4 C4          0.6821   -0.3238    7.6089 C.ar      1 <0>         0.0000
      5 C5         -0.2366   -0.6167    6.6009 C.ar      1 <0>         0.0000
      6 C6          0.3843   -0.6344    8.9357 C.ar      1 <0>         0.0000
      7 C7          0.0801   -0.2867    5.1871 C.2       1 <0>         0.0000
      8 C8          1.9325   -1.0133    2.6768 C.2       1 <0>         0.0000
      9 C9         -4.5752    3.1779    0.0331 C.3       1 <0>         0.0000
     10 C10        -2.7668    3.3107   -1.7140 C.3       1 <0>         0.0000
     11 C11         0.2195    0.8307    0.9188 C.3       1 <0>         0.0000
     12 C12        -1.0001    1.1700    0.0549 C.3       1 <0>         0.0000
     13 C13         2.3649   -0.5352    1.2935 C.3       1 <0>         0.0000
     14 C14         1.1534   -0.2750    0.3710 C.3       1 <0>         0.0000
     15 C15        -3.3066    2.5373   -0.5169 C.3       1 <0>         0.0000
     16 N1          1.6681    0.0834   -0.9557 N.3       1 <0>         0.0000
     17 N2          1.4238   -0.2520    4.8674 N.am      1 <0>         0.0000
     18 N3          1.7877    0.0290    3.5734 N.am      1 <0>         0.0000
     19 O1         -0.8375   -0.0833    4.3961 O.2       1 <0>         0.0000
     20 O2          1.7602   -2.2018    2.9407 O.2       1 <0>         0.0000
     21 O3          3.2186   -1.5159    0.7230 O.3       1 <0>         0.0000
     22 S1         -2.0492    2.4644    0.7791 S.3       1 <0>         0.0000
     23 Cl1         1.5171   -0.2728   10.1801 Cl        1 <0>         0.0000
     24 H1         -2.6981   -2.0004    8.4946 H         1 <0>         0.0000
     25 H2         -2.1768   -1.4534    6.1430 H         1 <0>         0.0000
     26 H3         -1.0781   -1.4858   10.2839 H         1 <0>         0.0000
     27 H4          1.6301    0.1476    7.3573 H         1 <0>         0.0000
     28 H5         -4.3764    4.2092    0.3452 H         1 <0>         0.0000
     29 H6         -5.3650    3.2137   -0.7256 H         1 <0>         0.0000
     30 H7         -4.9604    2.6385    0.9059 H         1 <0>         0.0000
     31 H8         -2.5401    4.3441   -1.4288 H         1 <0>         0.0000
     32 H9         -3.5004    3.3505   -2.5268 H         1 <0>         0.0000
     33 H10        -1.8438    2.8672   -2.1048 H         1 <0>         0.0000
     34 H11        -0.1531    0.5335    1.9082 H         1 <0>         0.0000
     35 H12         0.7975    1.7493    1.0822 H         1 <0>         0.0000
     36 H13        -1.6176    0.2727   -0.0585 H         1 <0>         0.0000
     37 H14        -0.7009    1.4813   -0.9501 H         1 <0>         0.0000
     38 H15         2.9484    0.3859    1.4229 H         1 <0>         0.0000
     39 H16         0.5915   -1.2082    0.2610 H         1 <0>         0.0000
     40 H17        -3.5264    1.5088   -0.8227 H         1 <0>         0.0000
     41 H18         0.8845    0.1717   -1.5934 H         1 <0>         0.0000
     42 H19         2.2416   -0.6802   -1.2969 H         1 <0>         0.0000
     43 H20         2.1281   -0.4306    5.5750 H         1 <0>         0.0000
     44 H21         1.9478    0.9869    3.2798 H         1 <0>         0.0000
     45 H22         2.7041   -2.3378    0.6655 H         1 <0>         0.0000
@<TRIPOS>BOND
     1    1    2 ar
     2    1    3 ar
     3    2    5 ar
     4    3    6 ar
     5    4    5 ar
     6    4    6 ar
     7    5    7 1
     8    6   23 1
     9    7   17 am
    10    7   19 2
    11    8   13 1
    12    8   18 am
    13    8   20 2
    14    9   15 1
    15   10   15 1
    16   11   12 1
    17   11   14 1
    18   12   22 1
    19   13   14 1
    20   13   21 1
    21   14   16 1
    22   15   22 1
    23   17   18 1
    24    1   24 1
    25    2   25 1
    26    3   26 1
    27    4   27 1
    28    9   28 1
    29    9   29 1
    30    9   30 1
    31   10   31 1
    32   10   32 1
    33   10   33 1
    34   11   34 1
    35   11   35 1
    36   12   36 1
    37   12   37 1
    38   13   38 1
    39   14   39 1
    40   15   40 1
    41   16   41 1
    42   16   42 1
    43   17   43 1
    44   18   44 1
    45   21   45 1
@<TRIPOS>MOLECULE
LIGAND
   45    45     0     0     0
SMALL
NO_CHARGES

@<TRIPOS>ATOM
      1 C1          1.5193   -1.1198    9.1205 C.ar      1 <0>         0.0000
      2 C2          1.7609   -0.7407    7.8001 C.ar      1 <0>         0.0000
      3 C3          0.2116   -1.1709    9.6034 C.ar      1 <0>         0.0000
      4 C4         -0.6128   -0.4635    7.4454 C.ar      1 <0>         0.0000
      5 C5          0.6949   -0.4125    6.9626 C.ar      1 <0>         0.0000
      6 C6         -0.8544   -0.8427    8.7658 C.ar      1 <0>         0.0000
      7 C7          0.9532   -0.0081    5.5563 C.2       1 <0>         0.0000
      8 C8          1.9325   -1.0133    2.6768 C.2       1 <0>         0.0000
      9 C9         -3.8093    0.5357    2.3936 C.3       1 <0>         0.0000
     10 C10        -2.8865   -1.7122    3.0536 C.3       1 <0>         0.0000
     11 C11         0.2195    0.8307    0.9188 C.3       1 <0>         0.0000
     12 C12        -1.2033    0.8526    0.3493 C.3       1 <0>         0.0000
     13 C13         2.3649   -0.5352    1.2935 C.3       1 <0>         0.0000
     14 C14         1.1534   -0.2750    0.3710 C.3       1 <0>         0.0000
     15 C15        -2.5973   -0.3875    2.3580 C.3       1 <0>         0.0000
     16 N1          1.6681    0.0834   -0.9557 N.3       1 <0>         0.0000
     17 N2          2.1084   -0.5131    4.9911 N.am      1 <0>         0.0000
     18 N3          2.3999   -0.1941    3.6876 N.am      1 <0>         0.0000
     19 O1          0.1465    0.7178    4.9806 O.2       1 <0>         0.0000
     20 O2          1.2610   -2.0296    2.8442 O.2       1 <0>         0.0000
     21 O3          3.2186   -1.5159    0.7230 O.3       1 <0>         0.0000
     22 S1         -2.1131   -0.6921    0.6437 S.3       1 <0>         0.0000
     23 Cl1        -2.4677   -0.9064    9.3621 Cl        1 <0>         0.0000
     24 H1          2.3494   -1.3756    9.7724 H         1 <0>         0.0000
     25 H2          2.7843   -0.7045    7.4354 H         1 <0>         0.0000
     26 H3          0.0388   -1.4681   10.6345 H         1 <0>         0.0000
     27 H4         -1.4425   -0.2075    6.7896 H         1 <0>         0.0000
     28 H5         -4.6639    0.0611    1.8984 H         1 <0>         0.0000
     29 H6         -4.1115    0.7576    3.4232 H         1 <0>         0.0000
     30 H7         -3.6162    1.4840    1.8793 H         1 <0>         0.0000
     31 H8         -3.7270   -2.2214    2.5687 H         1 <0>         0.0000
     32 H9         -3.1599   -1.5600    4.1037 H         1 <0>         0.0000
     33 H10        -2.0259   -2.3898    3.0168 H         1 <0>         0.0000
     34 H11         0.1339    0.7261    2.0087 H         1 <0>         0.0000
     35 H12         0.6781    1.8133    0.7493 H         1 <0>         0.0000
     36 H13        -1.1514    1.0013   -0.7344 H         1 <0>         0.0000
     37 H14        -1.7823    1.6852    0.7589 H         1 <0>         0.0000
     38 H15         2.9484    0.3859    1.4229 H         1 <0>         0.0000
     39 H16         0.5915   -1.2082    0.2610 H         1 <0>         0.0000
     40 H17        -1.7557    0.1045    2.8570 H         1 <0>         0.0000
     41 H18         0.8845    0.1717   -1.5934 H         1 <0>         0.0000
     42 H19         2.2416   -0.6802   -1.2969 H         1 <0>         0.0000
     43 H20         2.7293   -1.1081    5.5287 H         1 <0>         0.0000
     44 H21         2.9499    0.6302    3.4697 H         1 <0>         0.0000
     45 H22         2.7041   -2.3378    0.6655 H         1 <0>         0.0000
@<TRIPOS>BOND
     1    1    2 ar
     2    1    3 ar
     3    2    5 ar
     4    3    6 ar
     5    4    5 ar
     6    4    6 ar
     7    5    7 1
     8    6   23 1
     9    7   17 am
    10    7   19 2
    11    8   13 1
    12    8   18 am
    13    8   20 2
    14    9   15 1
    15   10   15 1
    16   11   12 1
    17   11   14 1
    18   12   22 1
    19   13   14 1
    20   13   21 1
    21   14   16 1
    22   15   22 1
    23   17   18 1
    24    1   24 1
    25    2   25 1
    26    3   26 1
    27    4   27 1
    28    9   28 1
    29    9   29 1
    30    9   30 1
    31   10   31 1
    32   10   32 1
    33   10   33 1
    34   11   34 1
    35   11   35 1
    36   12   36 1
    37   12   37 1
    38   13   38 1
    39   14   39 1
    40   15   40 1
    41   16   41 1
    42   16   42 1
    43   17   43 1
    44   18   44 1
    45   21   45 1
@<TRIPOS>MOLECULE
LIGAND
   45    45     0     0     0
SMALL
NO_CHARGES

@<TRIPOS>ATOM
      1 C1          1.2491   -0.2643    9.4993 C.ar      1 <0>         0.0000
      2 C2          1.4776    0.1988    8.2036 C.ar      1 <0>         0.0000
      3 C3          1.1939   -1.6354    9.7503 C.ar      1 <0>         0.0000
      4 C4          1.5955   -2.0801    7.4098 C.ar      1 <0>         0.0000
      5 C5          1.6507   -0.7090    7.1588 C.ar      1 <0>         0.0000
      6 C6          1.3670   -2.5432    8.7056 C.ar      1 <0>         0.0000
      7 C7          1.8934   -0.2148    5.7787 C.2       1 <0>         0.0000
      8 C8          1.9325   -1.0133    2.6768 C.2       1 <0>         0.0000
      9 C9         -4.1299   -0.4675   -2.0276 C.3       1 <0>         0.0000
     10 C10        -4.2566    1.4118   -0.3565 C.3       1 <0>         0.0000
     11 C11         0.2195    0.8307    0.9188 C.3       1 <0>         0.0000
     12 C12        -1.0001    1.1700    0.0549 C.3       1 <0>         0.0000
     13 C13         2.3649   -0.5352    1.2935 C.3       1 <0>         0.0000
     14 C14         1.1534   -0.2750    0.3710 C.3       1 <0>         0.0000
     15 C15        -3.3416    0.5718   -1.2395 C.3       1 <0>         0.0000
     16 N1          1.6681    0.0834   -0.9557 N.3       1 <0>         0.0000
     17 N2          2.6023   -1.0670    4.9540 N.am      1 <0>         0.0000
     18 N3          2.8469   -0.6810    3.6590 N.am      1 <0>         0.0000
     19 O1          1.4534    0.8829    5.4461 O.2       1 <0>         0.0000
     20 O2          0.8915   -1.6405    2.8632 O.2       1 <0>         0.0000
     21 O3          3.2186   -1.5159    0.7230 O.3       1 <0>         0.0000
     22 S1         -2.0977   -0.2515   -0.2193 S.3       1 <0>         0.0000
     23 Cl1         1.2993   -4.2348    9.0161 Cl        1 <0>         0.0000
     24 H1          1.1146    0.4426   10.3126 H         1 <0>         0.0000
     25 H2          1.5183    1.2695    8.0204 H         1 <0>         0.0000
     26 H3          1.0151   -1.9815   10.7651 H         1 <0>         0.0000
     27 H4          1.7315   -2.7860    6.5930 H         1 <0>         0.0000
     28 H5         -4.6663   -1.1363   -1.3453 H         1 <0>         0.0000
     29 H6         -4.8772    0.0053   -2.6747 H         1 <0>         0.0000
     30 H7         -3.4774   -1.0886   -2.6519 H         1 <0>         0.0000
     31 H8         -4.7949    0.7719    0.3515 H         1 <0>         0.0000
     32 H9         -5.0077    1.9429   -0.9517 H         1 <0>         0.0000
     33 H10        -3.6957    2.1500    0.2280 H         1 <0>         0.0000
     34 H11        -0.1531    0.5335    1.9082 H         1 <0>         0.0000
     35 H12         0.7975    1.7493    1.0822 H         1 <0>         0.0000
     36 H13        -0.6573    1.5138   -0.9268 H         1 <0>         0.0000
     37 H14        -1.5832    1.9849    0.4933 H         1 <0>         0.0000
     38 H15         2.9484    0.3859    1.4229 H         1 <0>         0.0000
     39 H16         0.5915   -1.2082    0.2610 H         1 <0>         0.0000
     40 H17        -2.8138    1.2291   -1.9386 H         1 <0>         0.0000
     41 H18         0.8845    0.1717   -1.5934 H         1 <0>         0.0000
     42 H19         2.2416   -0.6802   -1.2969 H         1 <0>         0.0000
     43 H20         2.9356   -1.9607    5.2985 H         1 <0>         0.0000
     44 H21         3.6858   -0.1599    3.4266 H         1 <0>         0.0000
     45 H22         2.7041   -2.3378    0.6655 H         1 <0>         0.0000
@<TRIPOS>BOND
     1    1    2 ar
     2    1    3 ar
     3    2    5 ar
     4    3    6 ar
     5    4    5 ar
     6    4    6 ar
     7    5    7 1
     8    6   23 1
     9    7   17 am
    10    7   19 2
    11    8   13 1
    12    8   18 am
    13    8   20 2
    14    9   15 1
    15   10   15 1
    16   11   12 1
    17   11   14 1
    18   12   22 1
    19   13   14 1
    20   13   21 1
    21   14   16 1
    22   15   22 1
    23   17   18 1
    24    1   24 1
    25    2   25 1
    26    3   26 1
    27    4   27 1
    28    9   28 1
    29    9   29 1
    30    9   30 1
    31   10   31 1
    32   10   32 1
    33   10   33 1
    34   11   34 1
    35   11   35 1
    36   12   36 1
    37   12   37 1
    38   13   38 1
    39   14   39 1
    40   15   40 1
    41   16   41 1
    42   16   42 1
    43   17   43 1
    44   18   44 1
    45   21   45 1
@<TRIPOS>MOLECULE
LIGAND
   45    45     0     0     0
SMALL
NO_CHARGES

@<TRIPOS>ATOM
      1 C1         -0.1690   -1.4033    8.5959 C.ar      1 <0>         0.0000
      2 C2          0.1811   -1.0431    7.2947 C.ar      1 <0>         0.0000
      3 C3         -0.3818   -0.4171    9.5593 C.ar      1 <0>         0.0000
      4 C4          0.1059    1.2894    7.9200 C.ar      1 <0>         0.0000
      5 C5          0.3186    0.3032    6.9567 C.ar      1 <0>         0.0000
      6 C6         -0.2443    0.9292    9.2213 C.ar      1 <0>         0.0000
      7 C7          0.6923    0.6859    5.5704 C.2       1 <0>         0.0000
      8 C8          1.9325   -1.0133    2.6768 C.2       1 <0>         0.0000
      9 C9         -3.5456    2.3208    3.0565 C.3       1 <0>         0.0000
     10 C10        -4.0220    0.6377    1.2453 C.3       1 <0>         0.0000
     11 C11         0.2195    0.8307    0.9188 C.3       1 <0>         0.0000
     12 C12        -1.0001    1.1700    0.0549 C.3       1 <0>         0.0000
     13 C13         2.3649   -0.5352    1.2935 C.3       1 <0>         0.0000
     14 C14         1.1534   -0.2750    0.3710 C.3       1 <0>         0.0000
     15 C15        -2.9459    1.4397    1.9673 C.3       1 <0>         0.0000
     16 N1          1.6681    0.0834   -0.9557 N.3       1 <0>         0.0000
     17 N2          1.4238   -0.2520    4.8674 N.am      1 <0>         0.0000
     18 N3          1.7877    0.0290    3.5734 N.am      1 <0>         0.0000
     19 O1          0.3313    1.7736    5.1279 O.2       1 <0>         0.0000
     20 O2          1.7602   -2.2018    2.9407 O.2       1 <0>         0.0000
     21 O3          3.2186   -1.5159    0.7230 O.3       1 <0>         0.0000
     22 S1         -2.0492    2.4644    0.7791 S.3       1 <0>         0.0000
     23 Cl1        -0.5074    2.1455   10.4103 Cl        1 <0>         0.0000
     24 H1         -0.2763   -2.4515    8.8588 H         1 <0>         0.0000
     25 H2          0.3444   -1.8206    6.5528 H         1 <0>         0.0000
     26 H3         -0.6541   -0.7128   10.5691 H         1 <0>         0.0000
     27 H4          0.2134    2.3388    7.6534 H         1 <0>         0.0000
     28 H5         -4.2705    3.0197    2.6246 H         1 <0>         0.0000
     29 H6         -4.0763    1.7229    3.8059 H         1 <0>         0.0000
     30 H7         -2.7806    2.9152    3.5690 H         1 <0>         0.0000
     31 H8         -4.7543    1.3108    0.7855 H         1 <0>         0.0000
     32 H9         -4.5673   -0.0125    1.9385 H         1 <0>         0.0000
     33 H10        -3.6015    0.0146    0.4477 H         1 <0>         0.0000
     34 H11        -0.1531    0.5335    1.9082 H         1 <0>         0.0000
     35 H12         0.7975    1.7493    1.0822 H         1 <0>         0.0000
     36 H13        -1.6176    0.2727   -0.0585 H         1 <0>         0.0000
     37 H14        -0.7009    1.4813   -0.9501 H         1 <0>         0.0000
     38 H15         2.9484    0.3859    1.4229 H         1 <0>         0.0000
     39 H16         0.5915   -1.2082    0.2610 H         1 <0>         0.0000
     40 H17        -2.2253    0.7496    2.4190 H         1 <0>         0.0000
     41 H18         0.8845    0.1717   -1.5934 H         1 <0>         0.0000
     42 H19         2.2416   -0.6802   -1.2969 H         1 <0>         0.0000
     43 H20         1.6871   -1.1312    5.2989 H         1 <0>         0.0000
     44 H21         1.9478    0.9869    3.2798 H         1 <0>         0.0000
     45 H22         2.7041   -2.3378    0.6655 H         1 <0>         0.0000
@<TRIPOS>BOND
     1    1    2 ar
     2    1    3 ar
     3    2    5 ar
     4    3    6 ar
     5    4    5 ar
     6    4    6 ar
     7    5    7 1
     8    6   23 1
     9    7   17 am
    10    7   19 2
    11    8   13 1
    12    8   18 am
    13    8   20 2
    14    9   15 1
    15   10   15 1
    16   11   12 1
    17   11   14 1
    18   12   22 1
    19   13   14 1
    20   13   21 1
    21   14   16 1
    22   15   22 1
    23   17   18 1
    24    1   24 1
    25    2   25 1
    26    3   26 1
    27    4   27 1
    28    9   28 1
    29    9   29 1
    30    9   30 1
    31   10   31 1
    32   10   32 1
    33   10   33 1
    34   11   34 1
    35   11   35 1
    36   12   36 1
    37   12   37 1
    38   13   38 1
    39   14   39 1
    40   15   40 1
    41   16   41 1
    42   16   42 1
    43   17   43 1
    44   18   44 1
    45   21   45 1
@<TRIPOS>MOLECULE
LIGAND
   45    45     0     0     0
SMALL
NO_CHARGES

@<TRIPOS>ATOM
      1 C1          0.7616   -0.9565    8.9701 C.ar      1 <0>         0.0000
      2 C2          1.1113   -0.5972    7.6686 C.ar      1 <0>         0.0000
      3 C3         -0.3809   -0.4156    9.5599 C.ar      1 <0>         0.0000
      4 C4         -0.8238    0.8441    7.5465 C.ar      1 <0>         0.0000
      5 C5          0.3186    0.3032    6.9567 C.ar      1 <0>         0.0000
      6 C6         -1.1736    0.4847    8.8481 C.ar      1 <0>         0.0000
      7 C7          0.6923    0.6859    5.5704 C.2       1 <0>         0.0000
      8 C8          1.9325   -1.0133    2.6768 C.2       1 <0>         0.0000
      9 C9         -2.0930    0.1515   -2.9182 C.3       1 <0>         0.0000
     10 C10        -4.3052   -0.3408   -1.8209 C.3       1 <0>         0.0000
     11 C11         0.2195    0.8307    0.9188 C.3       1 <0>         0.0000
     12 C12        -1.0001    1.1700    0.0549 C.3       1 <0>         0.0000
     13 C13         2.3649   -0.5352    1.2935 C.3       1 <0>         0.0000
     14 C14         1.1534   -0.2750    0.3710 C.3       1 <0>         0.0000
     15 C15        -2.9606    0.3632   -1.6834 C.3       1 <0>         0.0000
     16 N1          1.6681    0.0834   -0.9557 N.3       1 <0>         0.0000
     17 N2          1.4238   -0.2520    4.8674 N.am      1 <0>         0.0000
     18 N3          1.7877    0.0290    3.5734 N.am      1 <0>         0.0000
     19 O1          0.3313    1.7736    5.1279 O.2       1 <0>         0.0000
     20 O2          1.7602   -2.2018    2.9407 O.2       1 <0>         0.0000
     21 O3          3.2186   -1.5159    0.7230 O.3       1 <0>         0.0000
     22 S1         -2.0977   -0.2515   -0.2193 S.3       1 <0>         0.0000
     23 Cl1        -2.5835    1.1514    9.5763 Cl        1 <0>         0.0000
     24 H1          1.3787   -1.6577    9.5240 H         1 <0>         0.0000
     25 H2          2.0040   -1.0253    7.2198 H         1 <0>         0.0000
     26 H3         -0.6409   -0.7049   10.5749 H         1 <0>         0.0000
     27 H4         -1.4407    1.5458    6.9886 H         1 <0>         0.0000
     28 H5         -1.9123   -0.9173   -3.0778 H         1 <0>         0.0000
     29 H6         -2.5817    0.5374   -3.8198 H         1 <0>         0.0000
     30 H7         -1.1164    0.6393   -2.8203 H         1 <0>         0.0000
     31 H8         -4.1585   -1.4173   -1.9636 H         1 <0>         0.0000
     32 H9         -4.8626    0.0299   -2.6884 H         1 <0>         0.0000
     33 H10        -4.9288   -0.2091   -0.9293 H         1 <0>         0.0000
     34 H11        -0.1531    0.5335    1.9082 H         1 <0>         0.0000
     35 H12         0.7975    1.7493    1.0822 H         1 <0>         0.0000
     36 H13        -0.6573    1.5138   -0.9268 H         1 <0>         0.0000
     37 H14        -1.5832    1.9849    0.4933 H         1 <0>         0.0000
     38 H15         2.9484    0.3859    1.4229 H         1 <0>         0.0000
     39 H16         0.5915   -1.2082    0.2610 H         1 <0>         0.0000
     40 H17        -3.1292    1.4361   -1.5418 H         1 <0>         0.0000
     41 H18         0.8845    0.1717   -1.5934 H         1 <0>         0.0000
     42 H19         2.2416   -0.6802   -1.2969 H         1 <0>         0.0000
     43 H20         1.6871   -1.1312    5.2989 H         1 <0>         0.0000
     44 H21         1.9478    0.9869    3.2798 H         1 <0>         0.0000
     45 H22         2.7041   -2.3378    0.6655 H         1 <0>         0.0000
@<TRIPOS>BOND
     1    1    2 ar
     2    1    3 ar
     3    2    5 ar
     4    3    6 ar
     5    4    5 ar
     6    4    6 ar
     7    5    7 1
     8    6   23 1
     9    7   17 am
    10    7   19 2
    11    8   13 1
    12    8   18 am
    13    8   20 2
    14    9   15 1
    15   10   15 1
    16   11   12 1
    17   11   14 1
    18   12   22 1
    19   13   14 1
    20   13   21 1
    21   14   16 1
    22   15   22 1
    23   17   18 1
    24    1   24 1
    25    2   25 1
    26    3   26 1
    27    4   27 1
    28    9   28 1
    29    9   29 1
    30    9   30 1
    31   10   31 1
    32   10   32 1
    33   10   33 1
    34   11   34 1
    35   11   35 1
    36   12   36 1
    37   12   37 1
    38   13   38 1
    39   14   39 1
    40   15   40 1
    41   16   41 1
    42   16   42 1
    43   17   43 1
    44   18   44 1
    45   21   45 1
@<TRIPOS>MOLECULE
LIGAND
   45    45     0     0     0
SMALL
NO_CHARGES

@<TRIPOS>ATOM
      1 C1          0.3098   -0.7270    9.1684 C.ar      1 <0>         0.0000
      2 C2          0.5387   -0.2630    7.8731 C.ar      1 <0>         0.0000
      3 C3          1.1930   -1.6369    9.7496 C.ar      1 <0>         0.0000
      4 C4          2.5339   -1.6190    7.7400 C.ar      1 <0>         0.0000
      5 C5          1.6507   -0.7090    7.1588 C.ar      1 <0>         0.0000
      6 C6          2.3050   -2.0829    9.0354 C.ar      1 <0>         0.0000
      7 C7          1.8934   -0.2148    5.7787 C.2       1 <0>         0.0000
      8 C8          1.9325   -1.0133    2.6768 C.2       1 <0>         0.0000
      9 C9          0.9992    5.4655    0.4702 C.3       1 <0>         0.0000
     10 C10         0.2949    5.8734    2.8530 C.3       1 <0>         0.0000
     11 C11         0.2195    0.8307    0.9188 C.3       1 <0>         0.0000
     12 C12         0.8590    2.2074    1.1305 C.3       1 <0>         0.0000
     13 C13         2.3649   -0.5352    1.2935 C.3       1 <0>         0.0000
     14 C14         1.1534   -0.2750    0.3710 C.3       1 <0>         0.0000
     15 C15         0.8241    4.8515    1.8540 C.3       1 <0>         0.0000
     16 N1          1.6681    0.0834   -0.9557 N.3       1 <0>         0.0000
     17 N2          2.6023   -1.0670    4.9540 N.am      1 <0>         0.0000
     18 N3          2.8469   -0.6810    3.6590 N.am      1 <0>         0.0000
     19 O1          1.4534    0.8829    5.4461 O.2       1 <0>         0.0000
     20 O2          0.8915   -1.6405    2.8632 O.2       1 <0>         0.0000
     21 O3          3.2186   -1.5159    0.7230 O.3       1 <0>         0.0000
     22 S1         -0.3102    3.4478    1.7590 S.3       1 <0>         0.0000
     23 Cl1         3.3947   -3.2053    9.7533 Cl        1 <0>         0.0000
     24 H1         -0.5558   -0.3793    9.7245 H         1 <0>         0.0000
     25 H2         -0.1567    0.4458    7.4309 H         1 <0>         0.0000
     26 H3          1.0018   -1.9896   10.7598 H         1 <0>         0.0000
     27 H4          3.4009   -1.9648    7.1806 H         1 <0>         0.0000
     28 H5          0.0422    5.8509    0.1009 H         1 <0>         0.0000
     29 H6          1.7019    6.3059    0.4928 H         1 <0>         0.0000
     30 H7          1.3622    4.7326   -0.2594 H         1 <0>         0.0000
     31 H8         -0.6729    6.2651    2.5204 H         1 <0>         0.0000
     32 H9          0.9758    6.7263    2.9496 H         1 <0>         0.0000
     33 H10         0.1486    5.4355    3.8470 H         1 <0>         0.0000
     34 H11        -0.6259    0.9652    0.2307 H         1 <0>         0.0000
     35 H12        -0.2197    0.5004    1.8688 H         1 <0>         0.0000
     36 H13         1.2423    2.5738    0.1722 H         1 <0>         0.0000
     37 H14         1.7108    2.1489    1.8142 H         1 <0>         0.0000
     38 H15         2.9484    0.3859    1.4229 H         1 <0>         0.0000
     39 H16         0.5915   -1.2082    0.2610 H         1 <0>         0.0000
     40 H17         1.7903    4.4730    2.2043 H         1 <0>         0.0000
     41 H18         0.8845    0.1717   -1.5934 H         1 <0>         0.0000
     42 H19         2.2416   -0.6802   -1.2969 H         1 <0>         0.0000
     43 H20         2.9356   -1.9607    5.2985 H         1 <0>         0.0000
     44 H21         3.6858   -0.1599    3.4266 H         1 <0>         0.0000
     45 H22         2.7041   -2.3378    0.6655 H         1 <0>         0.0000
@<TRIPOS>BOND
     1    1    2 ar
     2    1    3 ar
     3    2    5 ar
     4    3    6 ar
     5    4    5 ar
     6    4    6 ar
     7    5    7 1
     8    6   23 1
     9    7   17 am
    10    7   19 2
    11    8   13 1
    12    8   18 am
    13    8   20 2
    14    9   15 1
    15   10   15 1
    16   11   12 1
    17   11   14 1
    18   12   22 1
    19   13   14 1
    20   13   21 1
    21   14   16 1
    22   15   22 1
    23   17   18 1
    24    1   24 1
    25    2   25 1
    26    3   26 1
    27    4   27 1
    28    9   28 1
    29    9   29 1
    30    9   30 1
    31   10   31 1
    32   10   32 1
    33   10   33 1
    34   11   34 1
    35   11   35 1
    36   12   36 1
    37   12   37 1
    38   13   38 1
    39   14   39 1
    40   15   40 1
    41   16   41 1
    42   16   42 1
    43   17   43 1
    44   18   44 1
    45   21   45 1
@<TRIPOS>MOLECULE
LIGAND
   45    45     0     0     0
SMALL
NO_CHARGES

@<TRIPOS>ATOM
      1 C1          0.8626    0.8871    9.5064 C.ar      1 <0>         0.0000
      2 C2          1.2856    1.2206    8.2197 C.ar      1 <0>         0.0000
      3 C3          0.5640   -0.4388    9.8206 C.ar      1 <0>         0.0000
      4 C4          1.1113   -1.0975    7.5615 C.ar      1 <0>         0.0000
      5 C5          1.4099    0.2284    7.2473 C.ar      1 <0>         0.0000
      6 C6          0.6884   -1.4310    8.8482 C.ar      1 <0>         0.0000
      7 C7          1.8600    0.5847    5.8768 C.2       1 <0>         0.0000
      8 C8          1.9325   -1.0133    2.6768 C.2       1 <0>         0.0000
      9 C9         -3.5953   -0.8020   -2.4330 C.3       1 <0>         0.0000
     10 C10        -4.0047    1.3935   -1.2699 C.3       1 <0>         0.0000
     11 C11         0.2195    0.8307    0.9188 C.3       1 <0>         0.0000
     12 C12        -1.0001    1.1700    0.0549 C.3       1 <0>         0.0000
     13 C13         2.3649   -0.5352    1.2935 C.3       1 <0>         0.0000
     14 C14         1.1534   -0.2750    0.3710 C.3       1 <0>         0.0000
     15 C15        -2.9606    0.3632   -1.6834 C.3       1 <0>         0.0000
     16 N1          1.6681    0.0834   -0.9557 N.3       1 <0>         0.0000
     17 N2          1.4238   -0.2520    4.8674 N.am      1 <0>         0.0000
     18 N3          1.7877    0.0290    3.5734 N.am      1 <0>         0.0000
     19 O1          2.5607    1.5803    5.7128 O.2       1 <0>         0.0000
     20 O2          1.7602   -2.2018    2.9407 O.2       1 <0>         0.0000
     21 O3          3.2186   -1.5159    0.7230 O.3       1 <0>         0.0000
     22 S1         -2.0977   -0.2515   -0.2193 S.3       1 <0>         0.0000
     23 Cl1         0.3202   -3.0669    9.2368 Cl        1 <0>         0.0000
     24 H1          0.7662    1.6597   10.2634 H         1 <0>         0.0000
     25 H2          1.5152    2.2572    7.9869 H         1 <0>         0.0000
     26 H3          0.2356   -0.6836   10.8274 H         1 <0>         0.0000
     27 H4          1.2098   -1.8695    6.8011 H         1 <0>         0.0000
     28 H5         -4.3436   -1.2969   -1.8040 H         1 <0>         0.0000
     29 H6         -4.1065   -0.4613   -3.3404 H         1 <0>         0.0000
     30 H7         -2.8540   -1.5571   -2.7183 H         1 <0>         0.0000
     31 H8         -4.7593    0.9323   -0.6229 H         1 <0>         0.0000
     32 H9         -4.5284    1.8023   -2.1412 H         1 <0>         0.0000
     33 H10        -3.5593    2.2264   -0.7139 H         1 <0>         0.0000
     34 H11        -0.1531    0.5335    1.9082 H         1 <0>         0.0000
     35 H12         0.7975    1.7493    1.0822 H         1 <0>         0.0000
     36 H13        -0.6573    1.5138   -0.9268 H         1 <0>         0.0000
     37 H14        -1.5832    1.9849    0.4933 H         1 <0>         0.0000
     38 H15         2.9484    0.3859    1.4229 H         1 <0>         0.0000
     39 H16         0.5915   -1.2082    0.2610 H         1 <0>         0.0000
     40 H17        -2.2171    0.8435   -2.3283 H         1 <0>         0.0000
     41 H18         0.8845    0.1717   -1.5934 H         1 <0>         0.0000
     42 H19         2.2416   -0.6802   -1.2969 H         1 <0>         0.0000
     43 H20         0.8460   -1.0583    5.0782 H         1 <0>         0.0000
     44 H21         1.9478    0.9869    3.2798 H         1 <0>         0.0000
     45 H22         2.7041   -2.3378    0.6655 H         1 <0>         0.0000
@<TRIPOS>BOND
     1    1    2 ar
     2    1    3 ar
     3    2    5 ar
     4    3    6 ar
     5    4    5 ar
     6    4    6 ar
     7    5    7 1
     8    6   23 1
     9    7   17 am
    10    7   19 2
    11    8   13 1
    12    8   18 am
    13    8   20 2
    14    9   15 1
    15   10   15 1
    16   11   12 1
    17   11   14 1
    18   12   22 1
    19   13   14 1
    20   13   21 1
    21   14   16 1
    22   15   22 1
    23   17   18 1
    24    1   24 1
    25    2   25 1
    26    3   26 1
    27    4   27 1
    28    9   28 1
    29    9   29 1
    30    9   30 1
    31   10   31 1
    32   10   32 1
    33   10   33 1
    34   11   34 1
    35   11   35 1
    36   12   36 1
    37   12   37 1
    38   13   38 1
    39   14   39 1
    40   15   40 1
    41   16   41 1
    42   16   42 1
    43   17   43 1
    44   18   44 1
    45   21   45 1
@<TRIPOS>MOLECULE
LIGAND
   45    45     0     0     0
SMALL
NO_CHARGES

@<TRIPOS>ATOM
      1 C1         -2.1326   -2.6043    7.7561 C.ar      1 <0>         0.0000
      2 C2         -1.7551   -2.3302    6.4416 C.ar      1 <0>         0.0000
      3 C3         -1.6491   -1.8151    8.7997 C.ar      1 <0>         0.0000
      4 C4         -0.4104   -0.4776    7.2142 C.ar      1 <0>         0.0000
      5 C5         -0.8940   -1.2668    6.1707 C.ar      1 <0>         0.0000
      6 C6         -0.7879   -0.7518    8.5287 C.ar      1 <0>         0.0000
      7 C7         -0.4919   -0.9759    4.7701 C.2       1 <0>         0.0000
      8 C8          1.9325   -1.0133    2.6768 C.2       1 <0>         0.0000
      9 C9          2.1016    5.5550   -0.7655 C.3       1 <0>         0.0000
     10 C10         3.8195    4.0640    0.3143 C.3       1 <0>         0.0000
     11 C11         1.5761    0.1765   -1.0474 C.3       1 <0>         0.0000
     12 C12         2.3784    1.4800   -1.1273 C.3       1 <0>         0.0000
     13 C13         2.3649   -0.5352    1.2935 C.3       1 <0>         0.0000
     14 C14         1.1534   -0.2750    0.3710 C.3       1 <0>         0.0000
     15 C15         2.7418    4.1721   -0.7577 C.3       1 <0>         0.0000
     16 N1          0.3597   -1.5080    0.3138 N.3       1 <0>         0.0000
     17 N2          0.7320   -0.3536    4.6161 N.am      1 <0>         0.0000
     18 N3          1.1743   -0.0714    3.3469 N.am      1 <0>         0.0000
     19 O1         -1.2351   -1.3059    3.8493 O.2       1 <0>         0.0000
     20 O2          2.2555   -2.1109    3.1269 O.2       1 <0>         0.0000
     21 O3          3.2186   -1.5159    0.7230 O.3       1 <0>         0.0000
     22 S1          1.4741    2.9151   -0.4766 S.3       1 <0>         0.0000
     23 Cl1        -0.1920    0.2220    9.8169 Cl        1 <0>         0.0000
     24 H1         -2.8034   -3.4321    7.9668 H         1 <0>         0.0000
     25 H2         -2.1385   -2.9523    5.6369 H         1 <0>         0.0000
     26 H3         -1.9519   -2.0407    9.8189 H         1 <0>         0.0000
     27 H4          0.2608    0.3516    6.9998 H         1 <0>         0.0000
     28 H5          1.6476    5.7697    0.2083 H         1 <0>         0.0000
     29 H6          2.8444    6.3372   -0.9581 H         1 <0>         0.0000
     30 H7          1.3123    5.6360   -1.5215 H         1 <0>         0.0000
     31 H8          3.3919    4.2558    1.3048 H         1 <0>         0.0000
     32 H9          4.6156    4.7998    0.1551 H         1 <0>         0.0000
     33 H10         4.2729    3.0665    0.3392 H         1 <0>         0.0000
     34 H11         2.1843   -0.6108   -1.5125 H         1 <0>         0.0000
     35 H12         0.6847    0.2765   -1.6798 H         1 <0>         0.0000
     36 H13         2.6151    1.6893   -2.1758 H         1 <0>         0.0000
     37 H14         3.3304    1.3937   -0.5957 H         1 <0>         0.0000
     38 H15         2.9484    0.3859    1.4229 H         1 <0>         0.0000
     39 H16         0.5249    0.4957    0.8291 H         1 <0>         0.0000
     40 H17         3.1890    3.9773   -1.7383 H         1 <0>         0.0000
     41 H18        -0.4842   -1.3249   -0.2178 H         1 <0>         0.0000
     42 H19         0.0690   -1.7492    1.2550 H         1 <0>         0.0000
     43 H20         1.2931   -0.1098    5.4249 H         1 <0>         0.0000
     44 H21         0.9480    0.8148    2.9078 H         1 <0>         0.0000
     45 H22         2.7041   -2.3378    0.6655 H         1 <0>         0.0000
@<TRIPOS>BOND
     1    1    2 ar
     2    1    3 ar
     3    2    5 ar
     4    3    6 ar
     5    4    5 ar
     6    4    6 ar
     7    5    7 1
     8    6   23 1
     9    7   17 am
    10    7   19 2
    11    8   13 1
    12    8   18 am
    13    8   20 2
    14    9   15 1
    15   10   15 1
    16   11   12 1
    17   11   14 1
    18   12   22 1
    19   13   14 1
    20   13   21 1
    21   14   16 1
    22   15   22 1
    23   17   18 1
    24    1   24 1
    25    2   25 1
    26    3   26 1
    27    4   27 1
    28    9   28 1
    29    9   29 1
    30    9   30 1
    31   10   31 1
    32   10   32 1
    33   10   33 1
    34   11   34 1
    35   11   35 1
    36   12   36 1
    37   12   37 1
    38   13   38 1
    39   14   39 1
    40   15   40 1
    41   16   41 1
    42   16   42 1
    43   17   43 1
    44   18   44 1
    45   21   45 1
@<TRIPOS>MOLECULE
LIGAND
   45    45     0     0     0
SMALL
NO_CHARGES

@<TRIPOS>ATOM
      1 C1          0.9632   -1.9977    8.7659 C.ar      1 <0>         0.0000
      2 C2          1.2047   -1.6176    7.4458 C.ar      1 <0>         0.0000
      3 C3          0.2117   -1.1727    9.6029 C.ar      1 <0>         0.0000
      4 C4         -0.0565    0.4125    7.7995 C.ar      1 <0>         0.0000
      5 C5          0.6949   -0.4125    6.9626 C.ar      1 <0>         0.0000
      6 C6         -0.2981    0.0324    9.1197 C.ar      1 <0>         0.0000
      7 C7          0.9532   -0.0081    5.5563 C.2       1 <0>         0.0000
      8 C8          1.9325   -1.0133    2.6768 C.2       1 <0>         0.0000
      9 C9          1.4564    5.4762    1.2996 C.3       1 <0>         0.0000
     10 C10         0.2261    5.4824    3.4965 C.3       1 <0>         0.0000
     11 C11         0.2195    0.8307    0.9188 C.3       1 <0>         0.0000
     12 C12         0.8590    2.2074    1.1305 C.3       1 <0>         0.0000
     13 C13         2.3649   -0.5352    1.2935 C.3       1 <0>         0.0000
     14 C14         1.1534   -0.2750    0.3710 C.3       1 <0>         0.0000
     15 C15         0.8895    4.6225    2.4275 C.3       1 <0>         0.0000
     16 N1          1.6681    0.0834   -0.9557 N.3       1 <0>         0.0000
     17 N2          2.1084   -0.5131    4.9911 N.am      1 <0>         0.0000
     18 N3          2.3999   -0.1941    3.6876 N.am      1 <0>         0.0000
     19 O1          0.1465    0.7178    4.9806 O.2       1 <0>         0.0000
     20 O2          1.2610   -2.0296    2.8442 O.2       1 <0>         0.0000
     21 O3          3.2186   -1.5159    0.7230 O.3       1 <0>         0.0000
     22 S1         -0.3102    3.4478    1.7590 S.3       1 <0>         0.0000
     23 Cl1        -1.2257    1.0496   10.1528 Cl        1 <0>         0.0000
     24 H1          1.3599   -2.9361    9.1418 H         1 <0>         0.0000
     25 H2          1.7918   -2.2688    6.8033 H         1 <0>         0.0000
     26 H3          0.0317   -1.4820   10.6292 H         1 <0>         0.0000
     27 H4         -0.4535    1.3518    7.4197 H         1 <0>         0.0000
     28 H5          0.6599    6.0638    0.8297 H         1 <0>         0.0000
     29 H6          2.2059    6.1832    1.6727 H         1 <0>         0.0000
     30 H7          1.9195    4.8646    0.5169 H         1 <0>         0.0000
     31 H8         -0.5894    6.0701    3.0604 H         1 <0>         0.0000
     32 H9          0.9374    6.1894    3.9378 H         1 <0>         0.0000
     33 H10        -0.2008    4.8752    4.3030 H         1 <0>         0.0000
     34 H11        -0.6259    0.9652    0.2307 H         1 <0>         0.0000
     35 H12        -0.2197    0.5004    1.8688 H         1 <0>         0.0000
     36 H13         1.2423    2.5738    0.1722 H         1 <0>         0.0000
     37 H14         1.7108    2.1489    1.8142 H         1 <0>         0.0000
     38 H15         2.9484    0.3859    1.4229 H         1 <0>         0.0000
     39 H16         0.5915   -1.2082    0.2610 H         1 <0>         0.0000
     40 H17         1.7002    4.0441    2.8832 H         1 <0>         0.0000
     41 H18         0.8845    0.1717   -1.5934 H         1 <0>         0.0000
     42 H19         2.2416   -0.6802   -1.2969 H         1 <0>         0.0000
     43 H20         2.7293   -1.1081    5.5287 H         1 <0>         0.0000
     44 H21         2.9499    0.6302    3.4697 H         1 <0>         0.0000
     45 H22         2.7041   -2.3378    0.6655 H         1 <0>         0.0000
@<TRIPOS>BOND
     1    1    2 ar
     2    1    3 ar
     3    2    5 ar
     4    3    6 ar
     5    4    5 ar
     6    4    6 ar
     7    5    7 1
     8    6   23 1
     9    7   17 am
    10    7   19 2
    11    8   13 1
    12    8   18 am
    13    8   20 2
    14    9   15 1
    15   10   15 1
    16   11   12 1
    17   11   14 1
    18   12   22 1
    19   13   14 1
    20   13   21 1
    21   14   16 1
    22   15   22 1
    23   17   18 1
    24    1   24 1
    25    2   25 1
    26    3   26 1
    27    4   27 1
    28    9   28 1
    29    9   29 1
    30    9   30 1
    31   10   31 1
    32   10   32 1
    33   10   33 1
    34   11   34 1
    35   11   35 1
    36   12   36 1
    37   12   37 1
    38   13   38 1
    39   14   39 1
    40   15   40 1
    41   16   41 1
    42   16   42 1
    43   17   43 1
    44   18   44 1
    45   21   45 1
@<TRIPOS>MOLECULE
LIGAND
   45    45     0     0     0
SMALL
NO_CHARGES

@<TRIPOS>ATOM
      1 C1          0.2436   -1.5853    8.6879 C.ar      1 <0>         0.0000
      2 C2          0.6848   -1.3243    7.3907 C.ar      1 <0>         0.0000
      3 C3          1.0636   -1.2882    9.7766 C.ar      1 <0>         0.0000
      4 C4          2.7661   -0.4692    8.2707 C.ar      1 <0>         0.0000
      5 C5          1.9460   -0.7663    7.1821 C.ar      1 <0>         0.0000
      6 C6          2.3248   -0.7302    9.5679 C.ar      1 <0>         0.0000
      7 C7          2.4155   -0.4891    5.7998 C.2       1 <0>         0.0000
      8 C8          1.9325   -1.0133    2.6768 C.2       1 <0>         0.0000
      9 C9         -4.2967    1.3927   -0.3375 C.3       1 <0>         0.0000
     10 C10        -4.0071    3.8901   -0.4781 C.3       1 <0>         0.0000
     11 C11         0.2195    0.8307    0.9188 C.3       1 <0>         0.0000
     12 C12        -1.0001    1.1700    0.0549 C.3       1 <0>         0.0000
     13 C13         2.3649   -0.5352    1.2935 C.3       1 <0>         0.0000
     14 C14         1.1534   -0.2750    0.3710 C.3       1 <0>         0.0000
     15 C15        -3.3066    2.5373   -0.5169 C.3       1 <0>         0.0000
     16 N1          1.6681    0.0834   -0.9557 N.3       1 <0>         0.0000
     17 N2          1.4238   -0.2520    4.8674 N.am      1 <0>         0.0000
     18 N3          1.7877    0.0290    3.5734 N.am      1 <0>         0.0000
     19 O1          3.6213   -0.4699    5.5658 O.2       1 <0>         0.0000
     20 O2          1.7602   -2.2018    2.9407 O.2       1 <0>         0.0000
     21 O3          3.2186   -1.5159    0.7230 O.3       1 <0>         0.0000
     22 S1         -2.0492    2.4644    0.7791 S.3       1 <0>         0.0000
     23 Cl1         3.3359   -0.3635   10.9117 Cl        1 <0>         0.0000
     24 H1         -0.7386   -2.0195    8.8502 H         1 <0>         0.0000
     25 H2          0.0368   -1.5602    6.5505 H         1 <0>         0.0000
     26 H3          0.7063   -1.4972   10.7816 H         1 <0>         0.0000
     27 H4          3.7493   -0.0335    8.1049 H         1 <0>         0.0000
     28 H5         -4.8186    1.4878    0.6213 H         1 <0>         0.0000
     29 H6         -5.0586    1.3975   -1.1249 H         1 <0>         0.0000
     30 H7         -3.7990    0.4164   -0.3457 H         1 <0>         0.0000
     31 H8         -4.5245    4.0235    0.4785 H         1 <0>         0.0000
     32 H9         -4.7599    3.9723   -1.2700 H         1 <0>         0.0000
     33 H10        -3.2998    4.7201   -0.5881 H         1 <0>         0.0000
     34 H11        -0.1531    0.5335    1.9082 H         1 <0>         0.0000
     35 H12         0.7975    1.7493    1.0822 H         1 <0>         0.0000
     36 H13        -1.6176    0.2727   -0.0585 H         1 <0>         0.0000
     37 H14        -0.7009    1.4813   -0.9501 H         1 <0>         0.0000
     38 H15         2.9484    0.3859    1.4229 H         1 <0>         0.0000
     39 H16         0.5915   -1.2082    0.2610 H         1 <0>         0.0000
     40 H17        -2.7965    2.4239   -1.4795 H         1 <0>         0.0000
     41 H18         0.8845    0.1717   -1.5934 H         1 <0>         0.0000
     42 H19         2.2416   -0.6802   -1.2969 H         1 <0>         0.0000
     43 H20         0.4458   -0.2847    5.1337 H         1 <0>         0.0000
     44 H21         1.9478    0.9869    3.2798 H         1 <0>         0.0000
     45 H22         2.7041   -2.3378    0.6655 H         1 <0>         0.0000
@<TRIPOS>BOND
     1    1    2 ar
     2    1    3 ar
     3    2    5 ar
     4    3    6 ar
     5    4    5 ar
     6    4    6 ar
     7    5    7 1
     8    6   23 1
     9    7   17 am
    10    7   19 2
    11    8   13 1
    12    8   18 am
    13    8   20 2
    14    9   15 1
    15   10   15 1
    16   11   12 1
    17   11   14 1
    18   12   22 1
    19   13   14 1
    20   13   21 1
    21   14   16 1
    22   15   22 1
    23   17   18 1
    24    1   24 1
    25    2   25 1
    26    3   26 1
    27    4   27 1
    28    9   28 1
    29    9   29 1
    30    9   30 1
    31   10   31 1
    32   10   32 1
    33   10   33 1
    34   11   34 1
    35   11   35 1
    36   12   36 1
    37   12   37 1
    38   13   38 1
    39   14   39 1
    40   15   40 1
    41   16   41 1
    42   16   42 1
    43   17   43 1
    44   18   44 1
    45   21   45 1
@<TRIPOS>MOLECULE
LIGAND
   45    45     0     0     0
SMALL
NO_CHARGES

@<TRIPOS>ATOM
      1 C1          0.2838   -0.5121    8.9168 C.ar      1 <0>         0.0000
      2 C2          0.7255   -0.2519    7.6195 C.ar      1 <0>         0.0000
      3 C3          1.0627   -1.2866    9.7766 C.ar      1 <0>         0.0000
      4 C4          2.7249   -1.5408    8.0419 C.ar      1 <0>         0.0000
      5 C5          1.9460   -0.7663    7.1821 C.ar      1 <0>         0.0000
      6 C6          2.2832   -1.8009    9.3391 C.ar      1 <0>         0.0000
      7 C7          2.4155   -0.4891    5.7998 C.2       1 <0>         0.0000
      8 C8          1.9325   -1.0133    2.6768 C.2       1 <0>         0.0000
      9 C9         -4.2967    1.3927   -0.3375 C.3       1 <0>         0.0000
     10 C10        -4.0071    3.8901   -0.4781 C.3       1 <0>         0.0000
     11 C11         0.2195    0.8307    0.9188 C.3       1 <0>         0.0000
     12 C12        -1.0001    1.1700    0.0549 C.3       1 <0>         0.0000
     13 C13         2.3649   -0.5352    1.2935 C.3       1 <0>         0.0000
     14 C14         1.1534   -0.2750    0.3710 C.3       1 <0>         0.0000
     15 C15        -3.3066    2.5373   -0.5169 C.3       1 <0>         0.0000
     16 N1          1.6681    0.0834   -0.9557 N.3       1 <0>         0.0000
     17 N2          1.4238   -0.2520    4.8674 N.am      1 <0>         0.0000
     18 N3          1.7877    0.0290    3.5734 N.am      1 <0>         0.0000
     19 O1          3.6213   -0.4699    5.5658 O.2       1 <0>         0.0000
     20 O2          1.7602   -2.2018    2.9407 O.2       1 <0>         0.0000
     21 O3          3.2186   -1.5159    0.7230 O.3       1 <0>         0.0000
     22 S1         -2.0492    2.4644    0.7791 S.3       1 <0>         0.0000
     23 Cl1         3.2440   -2.7561   10.4008 Cl        1 <0>         0.0000
     24 H1         -0.6664   -0.1113    9.2573 H         1 <0>         0.0000
     25 H2          0.1097    0.3528    6.9588 H         1 <0>         0.0000
     26 H3          0.7056   -1.4810   10.7846 H         1 <0>         0.0000
     27 H4          3.6769   -1.9403    7.6980 H         1 <0>         0.0000
     28 H5         -4.8186    1.4878    0.6213 H         1 <0>         0.0000
     29 H6         -5.0586    1.3975   -1.1249 H         1 <0>         0.0000
     30 H7         -3.7990    0.4164   -0.3457 H         1 <0>         0.0000
     31 H8         -4.5245    4.0235    0.4785 H         1 <0>         0.0000
     32 H9         -4.7599    3.9723   -1.2700 H         1 <0>         0.0000
     33 H10        -3.2998    4.7201   -0.5881 H         1 <0>         0.0000
     34 H11        -0.1531    0.5335    1.9082 H         1 <0>         0.0000
     35 H12         0.7975    1.7493    1.0822 H         1 <0>         0.0000
     36 H13        -1.6176    0.2727   -0.0585 H         1 <0>         0.0000
     37 H14        -0.7009    1.4813   -0.9501 H         1 <0>         0.0000
     38 H15         2.9484    0.3859    1.4229 H         1 <0>         0.0000
     39 H16         0.5915   -1.2082    0.2610 H         1 <0>         0.0000
     40 H17        -2.7965    2.4239   -1.4795 H         1 <0>         0.0000
     41 H18         0.8845    0.1717   -1.5934 H         1 <0>         0.0000
     42 H19         2.2416   -0.6802   -1.2969 H         1 <0>         0.0000
     43 H20         0.4458   -0.2847    5.1337 H         1 <0>         0.0000
     44 H21         1.9478    0.9869    3.2798 H         1 <0>         0.0000
     45 H22         2.7041   -2.3378    0.6655 H         1 <0>         0.0000
@<TRIPOS>BOND
     1    1    2 ar
     2    1    3 ar
     3    2    5 ar
     4    3    6 ar
     5    4    5 ar
     6    4    6 ar
     7    5    7 1
     8    6   23 1
     9    7   17 am
    10    7   19 2
    11    8   13 1
    12    8   18 am
    13    8   20 2
    14    9   15 1
    15   10   15 1
    16   11   12 1
    17   11   14 1
    18   12   22 1
    19   13   14 1
    20   13   21 1
    21   14   16 1
    22   15   22 1
    23   17   18 1
    24    1   24 1
    25    2   25 1
    26    3   26 1
    27    4   27 1
    28    9   28 1
    29    9   29 1
    30    9   30 1
    31   10   31 1
    32   10   32 1
    33   10   33 1
    34   11   34 1
    35   11   35 1
    36   12   36 1
    37   12   37 1
    38   13   38 1
    39   14   39 1
    40   15   40 1
    41   16   41 1
    42   16   42 1
    43   17   43 1
    44   18   44 1
    45   21   45 1
@<TRIPOS>MOLECULE
LIGAND
   45    45     0     0     0
SMALL
NO_CHARGES

@<TRIPOS>ATOM
      1 C1         -0.2456    0.9322    9.2201 C.ar      1 <0>         0.0000
      2 C2          0.1058    1.2906    7.9187 C.ar      1 <0>         0.0000
      3 C3         -0.3840   -0.4137    9.5596 C.ar      1 <0>         0.0000
      4 C4          0.1802   -1.0427    7.2962 C.ar      1 <0>         0.0000
      5 C5          0.3186    0.3032    6.9567 C.ar      1 <0>         0.0000
      6 C6         -0.1712   -1.4011    8.5976 C.ar      1 <0>         0.0000
      7 C7          0.6923    0.6859    5.5704 C.2       1 <0>         0.0000
      8 C8          1.9325   -1.0133    2.6768 C.2       1 <0>         0.0000
      9 C9         -3.5456    2.3208    3.0565 C.3       1 <0>         0.0000
     10 C10        -4.0220    0.6377    1.2453 C.3       1 <0>         0.0000
     11 C11         0.2195    0.8307    0.9188 C.3       1 <0>         0.0000
     12 C12        -1.0001    1.1700    0.0549 C.3       1 <0>         0.0000
     13 C13         2.3649   -0.5352    1.2935 C.3       1 <0>         0.0000
     14 C14         1.1534   -0.2750    0.3710 C.3       1 <0>         0.0000
     15 C15        -2.9459    1.4397    1.9673 C.3       1 <0>         0.0000
     16 N1          1.6681    0.0834   -0.9557 N.3       1 <0>         0.0000
     17 N2          1.4238   -0.2520    4.8674 N.am      1 <0>         0.0000
     18 N3          1.7877    0.0290    3.5734 N.am      1 <0>         0.0000
     19 O1          0.3313    1.7736    5.1279 O.2       1 <0>         0.0000
     20 O2          1.7602   -2.2018    2.9407 O.2       1 <0>         0.0000
     21 O3          3.2186   -1.5159    0.7230 O.3       1 <0>         0.0000
     22 S1         -2.0492    2.4644    0.7791 S.3       1 <0>         0.0000
     23 Cl1        -0.3417   -3.0616    9.0174 Cl        1 <0>         0.0000
     24 H1         -0.4110    1.7011    9.9690 H         1 <0>         0.0000
     25 H2          0.2105    2.3426    7.6662 H         1 <0>         0.0000
     26 H3         -0.6583   -0.6779   10.5776 H         1 <0>         0.0000
     27 H4          0.3474   -1.8109    6.5438 H         1 <0>         0.0000
     28 H5         -4.2705    3.0197    2.6246 H         1 <0>         0.0000
     29 H6         -4.0763    1.7229    3.8059 H         1 <0>         0.0000
     30 H7         -2.7806    2.9152    3.5690 H         1 <0>         0.0000
     31 H8         -4.7543    1.3108    0.7855 H         1 <0>         0.0000
     32 H9         -4.5673   -0.0125    1.9385 H         1 <0>         0.0000
     33 H10        -3.6015    0.0146    0.4477 H         1 <0>         0.0000
     34 H11        -0.1531    0.5335    1.9082 H         1 <0>         0.0000
     35 H12         0.7975    1.7493    1.0822 H         1 <0>         0.0000
     36 H13        -1.6176    0.2727   -0.0585 H         1 <0>         0.0000
     37 H14        -0.7009    1.4813   -0.9501 H         1 <0>         0.0000
     38 H15         2.9484    0.3859    1.4229 H         1 <0>         0.0000
     39 H16         0.5915   -1.2082    0.2610 H         1 <0>         0.0000
     40 H17        -2.2253    0.7496    2.4190 H         1 <0>         0.0000
     41 H18         0.8845    0.1717   -1.5934 H         1 <0>         0.0000
     42 H19         2.2416   -0.6802   -1.2969 H         1 <0>         0.0000
     43 H20         1.6871   -1.1312    5.2989 H         1 <0>         0.0000
     44 H21         1.9478    0.9869    3.2798 H         1 <0>         0.0000
     45 H22         2.7041   -2.3378    0.6655 H         1 <0>         0.0000
@<TRIPOS>BOND
     1    1    2 ar
     2    1    3 ar
     3    2    5 ar
     4    3    6 ar
     5    4    5 ar
     6    4    6 ar
     7    5    7 1
     8    6   23 1
     9    7   17 am
    10    7   19 2
    11    8   13 1
    12    8   18 am
    13    8   20 2
    14    9   15 1
    15   10   15 1
    16   11   12 1
    17   11   14 1
    18   12   22 1
    19   13   14 1
    20   13   21 1
    21   14   16 1
    22   15   22 1
    23   17   18 1
    24    1   24 1
    25    2   25 1
    26    3   26 1
    27    4   27 1
    28    9   28 1
    29    9   29 1
    30    9   30 1
    31   10   31 1
    32   10   32 1
    33   10   33 1
    34   11   34 1
    35   11   35 1
    36   12   36 1
    37   12   37 1
    38   13   38 1
    39   14   39 1
    40   15   40 1
    41   16   41 1
    42   16   42 1
    43   17   43 1
    44   18   44 1
    45   21   45 1
@<TRIPOS>MOLECULE
LIGAND
   45    45     0     0     0
SMALL
NO_CHARGES

@<TRIPOS>ATOM
      1 C1         -2.1326   -2.6043    7.7561 C.ar      1 <0>         0.0000
      2 C2         -1.7551   -2.3302    6.4416 C.ar      1 <0>         0.0000
      3 C3         -1.6491   -1.8151    8.7997 C.ar      1 <0>         0.0000
      4 C4         -0.4104   -0.4776    7.2142 C.ar      1 <0>         0.0000
      5 C5         -0.8940   -1.2668    6.1707 C.ar      1 <0>         0.0000
      6 C6         -0.7879   -0.7518    8.5287 C.ar      1 <0>         0.0000
      7 C7         -0.4919   -0.9759    4.7701 C.2       1 <0>         0.0000
      8 C8          1.9325   -1.0133    2.6768 C.2       1 <0>         0.0000
      9 C9          2.7221    4.6042   -2.2190 C.3       1 <0>         0.0000
     10 C10         2.5092    5.3544    0.1752 C.3       1 <0>         0.0000
     11 C11         1.5761    0.1765   -1.0474 C.3       1 <0>         0.0000
     12 C12         2.3784    1.4800   -1.1273 C.3       1 <0>         0.0000
     13 C13         2.3649   -0.5352    1.2935 C.3       1 <0>         0.0000
     14 C14         1.1534   -0.2750    0.3710 C.3       1 <0>         0.0000
     15 C15         2.7418    4.1721   -0.7577 C.3       1 <0>         0.0000
     16 N1          0.3597   -1.5080    0.3138 N.3       1 <0>         0.0000
     17 N2          0.7320   -0.3536    4.6161 N.am      1 <0>         0.0000
     18 N3          1.1743   -0.0714    3.3469 N.am      1 <0>         0.0000
     19 O1         -1.2351   -1.3059    3.8493 O.2       1 <0>         0.0000
     20 O2          2.2555   -2.1109    3.1269 O.2       1 <0>         0.0000
     21 O3          3.2186   -1.5159    0.7230 O.3       1 <0>         0.0000
     22 S1          1.4741    2.9151   -0.4766 S.3       1 <0>         0.0000
     23 Cl1        -0.1920    0.2220    9.8169 Cl        1 <0>         0.0000
     24 H1         -2.8034   -3.4321    7.9668 H         1 <0>         0.0000
     25 H2         -2.1385   -2.9523    5.6369 H         1 <0>         0.0000
     26 H3         -1.9519   -2.0407    9.8189 H         1 <0>         0.0000
     27 H4          0.2608    0.3516    6.9998 H         1 <0>         0.0000
     28 H5          1.7574    5.0604   -2.4680 H         1 <0>         0.0000
     29 H6          3.4979    5.3502   -2.4247 H         1 <0>         0.0000
     30 H7          2.8703    3.7569   -2.8981 H         1 <0>         0.0000
     31 H8          1.5412    5.8221   -0.0370 H         1 <0>         0.0000
     32 H9          3.2784    6.1235    0.0438 H         1 <0>         0.0000
     33 H10         2.5035    5.0496    1.2280 H         1 <0>         0.0000
     34 H11         2.1843   -0.6108   -1.5125 H         1 <0>         0.0000
     35 H12         0.6847    0.2765   -1.6798 H         1 <0>         0.0000
     36 H13         2.6151    1.6893   -2.1758 H         1 <0>         0.0000
     37 H14         3.3304    1.3937   -0.5957 H         1 <0>         0.0000
     38 H15         2.9484    0.3859    1.4229 H         1 <0>         0.0000
     39 H16         0.5249    0.4957    0.8291 H         1 <0>         0.0000
     40 H17         3.7127    3.7195   -0.5296 H         1 <0>         0.0000
     41 H18        -0.4842   -1.3249   -0.2178 H         1 <0>         0.0000
     42 H19         0.0690   -1.7492    1.2550 H         1 <0>         0.0000
     43 H20         1.2931   -0.1098    5.4249 H         1 <0>         0.0000
     44 H21         0.9480    0.8148    2.9078 H         1 <0>         0.0000
     45 H22         2.7041   -2.3378    0.6655 H         1 <0>         0.0000
@<TRIPOS>BOND
     1    1    2 ar
     2    1    3 ar
     3    2    5 ar
     4    3    6 ar
     5    4    5 ar
     6    4    6 ar
     7    5    7 1
     8    6   23 1
     9    7   17 am
    10    7   19 2
    11    8   13 1
    12    8   18 am
    13    8   20 2
    14    9   15 1
    15   10   15 1
    16   11   12 1
    17   11   14 1
    18   12   22 1
    19   13   14 1
    20   13   21 1
    21   14   16 1
    22   15   22 1
    23   17   18 1
    24    1   24 1
    25    2   25 1
    26    3   26 1
    27    4   27 1
    28    9   28 1
    29    9   29 1
    30    9   30 1
    31   10   31 1
    32   10   32 1
    33   10   33 1
    34   11   34 1
    35   11   35 1
    36   12   36 1
    37   12   37 1
    38   13   38 1
    39   14   39 1
    40   15   40 1
    41   16   41 1
    42   16   42 1
    43   17   43 1
    44   18   44 1
    45   21   45 1
@<TRIPOS>MOLECULE
LIGAND
   45    45     0     0     0
SMALL
NO_CHARGES

@<TRIPOS>ATOM
      1 C1         -1.1762    0.4854    8.8459 C.ar      1 <0>         0.0000
      2 C2         -0.8244    0.8446    7.5448 C.ar      1 <0>         0.0000
      3 C3         -0.3849   -0.4152    9.5589 C.ar      1 <0>         0.0000
      4 C4          1.1100   -0.5975    7.6697 C.ar      1 <0>         0.0000
      5 C5          0.3186    0.3032    6.9567 C.ar      1 <0>         0.0000
      6 C6          0.7582   -0.9567    8.9708 C.ar      1 <0>         0.0000
      7 C7          0.6923    0.6859    5.5704 C.2       1 <0>         0.0000
      8 C8          1.9325   -1.0133    2.6768 C.2       1 <0>         0.0000
      9 C9         -3.5456    2.3208    3.0565 C.3       1 <0>         0.0000
     10 C10        -4.0220    0.6377    1.2453 C.3       1 <0>         0.0000
     11 C11         0.2195    0.8307    0.9188 C.3       1 <0>         0.0000
     12 C12        -1.0001    1.1700    0.0549 C.3       1 <0>         0.0000
     13 C13         2.3649   -0.5352    1.2935 C.3       1 <0>         0.0000
     14 C14         1.1534   -0.2750    0.3710 C.3       1 <0>         0.0000
     15 C15        -2.9459    1.4397    1.9673 C.3       1 <0>         0.0000
     16 N1          1.6681    0.0834   -0.9557 N.3       1 <0>         0.0000
     17 N2          1.4238   -0.2520    4.8674 N.am      1 <0>         0.0000
     18 N3          1.7877    0.0290    3.5734 N.am      1 <0>         0.0000
     19 O1          0.3313    1.7736    5.1279 O.2       1 <0>         0.0000
     20 O2          1.7602   -2.2018    2.9407 O.2       1 <0>         0.0000
     21 O3          3.2186   -1.5159    0.7230 O.3       1 <0>         0.0000
     22 S1         -2.0492    2.4644    0.7791 S.3       1 <0>         0.0000
     23 Cl1         1.7344   -2.0675    9.8514 Cl        1 <0>         0.0000
     24 H1         -2.0661    0.9073    9.3037 H         1 <0>         0.0000
     25 H2         -1.4491    1.5473    6.9992 H         1 <0>         0.0000
     26 H3         -0.6715   -0.6858   10.5719 H         1 <0>         0.0000
     27 H4          2.0015   -1.0178    7.2086 H         1 <0>         0.0000
     28 H5         -4.2705    3.0197    2.6246 H         1 <0>         0.0000
     29 H6         -4.0763    1.7229    3.8059 H         1 <0>         0.0000
     30 H7         -2.7806    2.9152    3.5690 H         1 <0>         0.0000
     31 H8         -4.7543    1.3108    0.7855 H         1 <0>         0.0000
     32 H9         -4.5673   -0.0125    1.9385 H         1 <0>         0.0000
     33 H10        -3.6015    0.0146    0.4477 H         1 <0>         0.0000
     34 H11        -0.1531    0.5335    1.9082 H         1 <0>         0.0000
     35 H12         0.7975    1.7493    1.0822 H         1 <0>         0.0000
     36 H13        -1.6176    0.2727   -0.0585 H         1 <0>         0.0000
     37 H14        -0.7009    1.4813   -0.9501 H         1 <0>         0.0000
     38 H15         2.9484    0.3859    1.4229 H         1 <0>         0.0000
     39 H16         0.5915   -1.2082    0.2610 H         1 <0>         0.0000
     40 H17        -2.2253    0.7496    2.4190 H         1 <0>         0.0000
     41 H18         0.8845    0.1717   -1.5934 H         1 <0>         0.0000
     42 H19         2.2416   -0.6802   -1.2969 H         1 <0>         0.0000
     43 H20         1.6871   -1.1312    5.2989 H         1 <0>         0.0000
     44 H21         1.9478    0.9869    3.2798 H         1 <0>         0.0000
     45 H22         2.7041   -2.3378    0.6655 H         1 <0>         0.0000
@<TRIPOS>BOND
     1    1    2 ar
     2    1    3 ar
     3    2    5 ar
     4    3    6 ar
     5    4    5 ar
     6    4    6 ar
     7    5    7 1
     8    6   23 1
     9    7   17 am
    10    7   19 2
    11    8   13 1
    12    8   18 am
    13    8   20 2
    14    9   15 1
    15   10   15 1
    16   11   12 1
    17   11   14 1
    18   12   22 1
    19   13   14 1
    20   13   21 1
    21   14   16 1
    22   15   22 1
    23   17   18 1
    24    1   24 1
    25    2   25 1
    26    3   26 1
    27    4   27 1
    28    9   28 1
    29    9   29 1
    30    9   30 1
    31   10   31 1
    32   10   32 1
    33   10   33 1
    34   11   34 1
    35   11   35 1
    36   12   36 1
    37   12   37 1
    38   13   38 1
    39   14   39 1
    40   15   40 1
    41   16   41 1
    42   16   42 1
    43   17   43 1
    44   18   44 1
    45   21   45 1
@<TRIPOS>MOLECULE
LIGAND
   45    45     0     0     0
SMALL
NO_CHARGES

@<TRIPOS>ATOM
      1 C1          0.3098   -0.7270    9.1684 C.ar      1 <0>         0.0000
      2 C2          0.5387   -0.2630    7.8731 C.ar      1 <0>         0.0000
      3 C3          1.1930   -1.6369    9.7496 C.ar      1 <0>         0.0000
      4 C4          2.5339   -1.6190    7.7400 C.ar      1 <0>         0.0000
      5 C5          1.6507   -0.7090    7.1588 C.ar      1 <0>         0.0000
      6 C6          2.3050   -2.0829    9.0354 C.ar      1 <0>         0.0000
      7 C7          1.8934   -0.2148    5.7787 C.2       1 <0>         0.0000
      8 C8          1.9325   -1.0133    2.6768 C.2       1 <0>         0.0000
      9 C9         -4.1299   -0.4675   -2.0276 C.3       1 <0>         0.0000
     10 C10        -4.2566    1.4118   -0.3565 C.3       1 <0>         0.0000
     11 C11         0.2195    0.8307    0.9188 C.3       1 <0>         0.0000
     12 C12        -1.0001    1.1700    0.0549 C.3       1 <0>         0.0000
     13 C13         2.3649   -0.5352    1.2935 C.3       1 <0>         0.0000
     14 C14         1.1534   -0.2750    0.3710 C.3       1 <0>         0.0000
     15 C15        -3.3416    0.5718   -1.2395 C.3       1 <0>         0.0000
     16 N1          1.6681    0.0834   -0.9557 N.3       1 <0>         0.0000
     17 N2          2.6023   -1.0670    4.9540 N.am      1 <0>         0.0000
     18 N3          2.8469   -0.6810    3.6590 N.am      1 <0>         0.0000
     19 O1          1.4534    0.8829    5.4461 O.2       1 <0>         0.0000
     20 O2          0.8915   -1.6405    2.8632 O.2       1 <0>         0.0000
     21 O3          3.2186   -1.5159    0.7230 O.3       1 <0>         0.0000
     22 S1         -2.0977   -0.2515   -0.2193 S.3       1 <0>         0.0000
     23 Cl1         3.3947   -3.2053    9.7533 Cl        1 <0>         0.0000
     24 H1         -0.5558   -0.3793    9.7245 H         1 <0>         0.0000
     25 H2         -0.1567    0.4458    7.4309 H         1 <0>         0.0000
     26 H3          1.0018   -1.9896   10.7598 H         1 <0>         0.0000
     27 H4          3.4009   -1.9648    7.1806 H         1 <0>         0.0000
     28 H5         -4.6663   -1.1363   -1.3453 H         1 <0>         0.0000
     29 H6         -4.8772    0.0053   -2.6747 H         1 <0>         0.0000
     30 H7         -3.4774   -1.0886   -2.6519 H         1 <0>         0.0000
     31 H8         -4.7949    0.7719    0.3515 H         1 <0>         0.0000
     32 H9         -5.0077    1.9429   -0.9517 H         1 <0>         0.0000
     33 H10        -3.6957    2.1500    0.2280 H         1 <0>         0.0000
     34 H11        -0.1531    0.5335    1.9082 H         1 <0>         0.0000
     35 H12         0.7975    1.7493    1.0822 H         1 <0>         0.0000
     36 H13        -0.6573    1.5138   -0.9268 H         1 <0>         0.0000
     37 H14        -1.5832    1.9849    0.4933 H         1 <0>         0.0000
     38 H15         2.9484    0.3859    1.4229 H         1 <0>         0.0000
     39 H16         0.5915   -1.2082    0.2610 H         1 <0>         0.0000
     40 H17        -2.8138    1.2291   -1.9386 H         1 <0>         0.0000
     41 H18         0.8845    0.1717   -1.5934 H         1 <0>         0.0000
     42 H19         2.2416   -0.6802   -1.2969 H         1 <0>         0.0000
     43 H20         2.9356   -1.9607    5.2985 H         1 <0>         0.0000
     44 H21         3.6858   -0.1599    3.4266 H         1 <0>         0.0000
     45 H22         2.7041   -2.3378    0.6655 H         1 <0>         0.0000
@<TRIPOS>BOND
     1    1    2 ar
     2    1    3 ar
     3    2    5 ar
     4    3    6 ar
     5    4    5 ar
     6    4    6 ar
     7    5    7 1
     8    6   23 1
     9    7   17 am
    10    7   19 2
    11    8   13 1
    12    8   18 am
    13    8   20 2
    14    9   15 1
    15   10   15 1
    16   11   12 1
    17   11   14 1
    18   12   22 1
    19   13   14 1
    20   13   21 1
    21   14   16 1
    22   15   22 1
    23   17   18 1
    24    1   24 1
    25    2   25 1
    26    3   26 1
    27    4   27 1
    28    9   28 1
    29    9   29 1
    30    9   30 1
    31   10   31 1
    32   10   32 1
    33   10   33 1
    34   11   34 1
    35   11   35 1
    36   12   36 1
    37   12   37 1
    38   13   38 1
    39   14   39 1
    40   15   40 1
    41   16   41 1
    42   16   42 1
    43   17   43 1
    44   18   44 1
    45   21   45 1
@<TRIPOS>MOLECULE
LIGAND
   45    45     0     0     0
SMALL
NO_CHARGES

@<TRIPOS>ATOM
      1 C1          1.4050   -2.4049    8.7677 C.ar      1 <0>         0.0000
      2 C2          1.6744   -2.0859    7.4368 C.ar      1 <0>         0.0000
      3 C3          2.2499   -3.2707    9.4621 C.ar      1 <0>         0.0000
      4 C4          3.6334   -3.4986    7.4947 C.ar      1 <0>         0.0000
      5 C5          2.7886   -2.6327    6.8003 C.ar      1 <0>         0.0000
      6 C6          3.3641   -3.8176    8.8256 C.ar      1 <0>         0.0000
      7 C7          3.0744   -2.2928    5.3823 C.2       1 <0>         0.0000
      8 C8          1.9325   -1.0133    2.6768 C.2       1 <0>         0.0000
      9 C9         -4.1299   -0.4675   -2.0276 C.3       1 <0>         0.0000
     10 C10        -4.2566    1.4118   -0.3565 C.3       1 <0>         0.0000
     11 C11         0.2195    0.8307    0.9188 C.3       1 <0>         0.0000
     12 C12        -1.0001    1.1700    0.0549 C.3       1 <0>         0.0000
     13 C13         2.3649   -0.5352    1.2935 C.3       1 <0>         0.0000
     14 C14         1.1534   -0.2750    0.3710 C.3       1 <0>         0.0000
     15 C15        -3.3416    0.5718   -1.2395 C.3       1 <0>         0.0000
     16 N1          1.6681    0.0834   -0.9557 N.3       1 <0>         0.0000
     17 N2          2.6023   -1.0670    4.9540 N.am      1 <0>         0.0000
     18 N3          2.8469   -0.6810    3.6590 N.am      1 <0>         0.0000
     19 O1          3.7083   -3.0847    4.6892 O.2       1 <0>         0.0000
     20 O2          0.8915   -1.6405    2.8632 O.2       1 <0>         0.0000
     21 O3          3.2186   -1.5159    0.7230 O.3       1 <0>         0.0000
     22 S1         -2.0977   -0.2515   -0.2193 S.3       1 <0>         0.0000
     23 Cl1         4.4064   -4.8856    9.6833 Cl        1 <0>         0.0000
     24 H1          0.5376   -1.9787    9.2631 H         1 <0>         0.0000
     25 H2          1.0086   -1.4100    6.9061 H         1 <0>         0.0000
     26 H3          2.0273   -3.5102   10.4987 H         1 <0>         0.0000
     27 H4          4.5022   -3.9233    6.9958 H         1 <0>         0.0000
     28 H5         -4.6663   -1.1363   -1.3453 H         1 <0>         0.0000
     29 H6         -4.8772    0.0053   -2.6747 H         1 <0>         0.0000
     30 H7         -3.4774   -1.0886   -2.6519 H         1 <0>         0.0000
     31 H8         -4.7949    0.7719    0.3515 H         1 <0>         0.0000
     32 H9         -5.0077    1.9429   -0.9517 H         1 <0>         0.0000
     33 H10        -3.6957    2.1500    0.2280 H         1 <0>         0.0000
     34 H11        -0.1531    0.5335    1.9082 H         1 <0>         0.0000
     35 H12         0.7975    1.7493    1.0822 H         1 <0>         0.0000
     36 H13        -0.6573    1.5138   -0.9268 H         1 <0>         0.0000
     37 H14        -1.5832    1.9849    0.4933 H         1 <0>         0.0000
     38 H15         2.9484    0.3859    1.4229 H         1 <0>         0.0000
     39 H16         0.5915   -1.2082    0.2610 H         1 <0>         0.0000
     40 H17        -2.8138    1.2291   -1.9386 H         1 <0>         0.0000
     41 H18         0.8845    0.1717   -1.5934 H         1 <0>         0.0000
     42 H19         2.2416   -0.6802   -1.2969 H         1 <0>         0.0000
     43 H20         2.0849   -0.4638    5.5841 H         1 <0>         0.0000
     44 H21         3.6858   -0.1599    3.4266 H         1 <0>         0.0000
     45 H22         2.7041   -2.3378    0.6655 H         1 <0>         0.0000
@<TRIPOS>BOND
     1    1    2 ar
     2    1    3 ar
     3    2    5 ar
     4    3    6 ar
     5    4    5 ar
     6    4    6 ar
     7    5    7 1
     8    6   23 1
     9    7   17 am
    10    7   19 2
    11    8   13 1
    12    8   18 am
    13    8   20 2
    14    9   15 1
    15   10   15 1
    16   11   12 1
    17   11   14 1
    18   12   22 1
    19   13   14 1
    20   13   21 1
    21   14   16 1
    22   15   22 1
    23   17   18 1
    24    1   24 1
    25    2   25 1
    26    3   26 1
    27    4   27 1
    28    9   28 1
    29    9   29 1
    30    9   30 1
    31   10   31 1
    32   10   32 1
    33   10   33 1
    34   11   34 1
    35   11   35 1
    36   12   36 1
    37   12   37 1
    38   13   38 1
    39   14   39 1
    40   15   40 1
    41   16   41 1
    42   16   42 1
    43   17   43 1
    44   18   44 1
    45   21   45 1
@<TRIPOS>MOLECULE
LIGAND
   45    45     0     0     0
SMALL
NO_CHARGES

@<TRIPOS>ATOM
      1 C1         -0.2543   -4.6217    7.4218 C.ar      1 <0>         0.0000
      2 C2          0.1849   -4.1238    6.1951 C.ar      1 <0>         0.0000
      3 C3         -1.4265   -5.3746    7.4895 C.ar      1 <0>         0.0000
      4 C4         -1.7206   -5.1316    5.1039 C.ar      1 <0>         0.0000
      5 C5         -0.5482   -4.3787    5.0361 C.ar      1 <0>         0.0000
      6 C6         -2.1597   -5.6295    6.3306 C.ar      1 <0>         0.0000
      7 C7         -0.0800   -3.8473    3.7299 C.2       1 <0>         0.0000
      8 C8          1.9325   -1.0133    2.6768 C.2       1 <0>         0.0000
      9 C9         -4.0623    0.8550    1.3177 C.3       1 <0>         0.0000
     10 C10        -3.5584   -1.5885    1.6583 C.3       1 <0>         0.0000
     11 C11         0.2195    0.8307    0.9188 C.3       1 <0>         0.0000
     12 C12        -1.0001    1.1700    0.0549 C.3       1 <0>         0.0000
     13 C13         2.3649   -0.5352    1.2935 C.3       1 <0>         0.0000
     14 C14         1.1534   -0.2750    0.3710 C.3       1 <0>         0.0000
     15 C15        -2.9754   -0.2124    1.3599 C.3       1 <0>         0.0000
     16 N1          1.6681    0.0834   -0.9557 N.3       1 <0>         0.0000
     17 N2          0.6851   -2.6985    3.7909 N.am      1 <0>         0.0000
     18 N3          1.1665   -2.1628    2.6216 N.am      1 <0>         0.0000
     19 O1         -0.3732   -4.4442    2.6969 O.2       1 <0>         0.0000
     20 O2          2.2299   -0.4108    3.7066 O.2       1 <0>         0.0000
     21 O3          3.2186   -1.5159    0.7230 O.3       1 <0>         0.0000
     22 S1         -2.0977   -0.2515   -0.2193 S.3       1 <0>         0.0000
     23 Cl1        -3.6059   -6.5591    6.4149 Cl        1 <0>         0.0000
     24 H1          0.3169   -4.4234    8.3239 H         1 <0>         0.0000
     25 H2          1.0999   -3.5383    6.1550 H         1 <0>         0.0000
     26 H3         -1.7564   -5.7561    8.4524 H         1 <0>         0.0000
     27 H4         -2.2902   -5.3293    4.1980 H         1 <0>         0.0000
     28 H5         -4.8019    0.6148    0.5457 H         1 <0>         0.0000
     29 H6         -4.5966    0.9180    2.2722 H         1 <0>         0.0000
     30 H7         -3.6542    1.8453    1.0855 H         1 <0>         0.0000
     31 H8         -4.2902   -1.8663    0.8915 H         1 <0>         0.0000
     32 H9         -4.0769   -1.6012    2.6234 H         1 <0>         0.0000
     33 H10        -2.7856   -2.3656    1.6725 H         1 <0>         0.0000
     34 H11        -0.1531    0.5335    1.9082 H         1 <0>         0.0000
     35 H12         0.7975    1.7493    1.0822 H         1 <0>         0.0000
     36 H13        -0.6573    1.5138   -0.9268 H         1 <0>         0.0000
     37 H14        -1.5832    1.9849    0.4933 H         1 <0>         0.0000
     38 H15         2.9484    0.3859    1.4229 H         1 <0>         0.0000
     39 H16         0.5915   -1.2082    0.2610 H         1 <0>         0.0000
     40 H17        -2.2476    0.0460    2.1366 H         1 <0>         0.0000
     41 H18         0.8845    0.1717   -1.5934 H         1 <0>         0.0000
     42 H19         2.2416   -0.6802   -1.2969 H         1 <0>         0.0000
     43 H20         0.8873   -2.2591    4.6823 H         1 <0>         0.0000
     44 H21         0.9630   -2.6038    1.7309 H         1 <0>         0.0000
     45 H22         2.7041   -2.3378    0.6655 H         1 <0>         0.0000
@<TRIPOS>BOND
     1    1    2 ar
     2    1    3 ar
     3    2    5 ar
     4    3    6 ar
     5    4    5 ar
     6    4    6 ar
     7    5    7 1
     8    6   23 1
     9    7   17 am
    10    7   19 2
    11    8   13 1
    12    8   18 am
    13    8   20 2
    14    9   15 1
    15   10   15 1
    16   11   12 1
    17   11   14 1
    18   12   22 1
    19   13   14 1
    20   13   21 1
    21   14   16 1
    22   15   22 1
    23   17   18 1
    24    1   24 1
    25    2   25 1
    26    3   26 1
    27    4   27 1
    28    9   28 1
    29    9   29 1
    30    9   30 1
    31   10   31 1
    32   10   32 1
    33   10   33 1
    34   11   34 1
    35   11   35 1
    36   12   36 1
    37   12   37 1
    38   13   38 1
    39   14   39 1
    40   15   40 1
    41   16   41 1
    42   16   42 1
    43   17   43 1
    44   18   44 1
    45   21   45 1
@<TRIPOS>MOLECULE
LIGAND
   45    45     0     0     0
SMALL
NO_CHARGES

@<TRIPOS>ATOM
      1 C1          2.3494   -1.9340    9.0709 C.ar      1 <0>         0.0000
      2 C2          2.6184   -1.6158    7.7398 C.ar      1 <0>         0.0000
      3 C3          2.2507   -3.2692    9.4627 C.ar      1 <0>         0.0000
      4 C4          2.6898   -3.9679    7.1920 C.ar      1 <0>         0.0000
      5 C5          2.7886   -2.6327    6.8003 C.ar      1 <0>         0.0000
      6 C6          2.4209   -4.2860    8.5232 C.ar      1 <0>         0.0000
      7 C7          3.0744   -2.2928    5.3823 C.2       1 <0>         0.0000
      8 C8          1.9325   -1.0133    2.6768 C.2       1 <0>         0.0000
      9 C9         -4.1299   -0.4675   -2.0276 C.3       1 <0>         0.0000
     10 C10        -4.2566    1.4118   -0.3565 C.3       1 <0>         0.0000
     11 C11         0.2195    0.8307    0.9188 C.3       1 <0>         0.0000
     12 C12        -1.0001    1.1700    0.0549 C.3       1 <0>         0.0000
     13 C13         2.3649   -0.5352    1.2935 C.3       1 <0>         0.0000
     14 C14         1.1534   -0.2750    0.3710 C.3       1 <0>         0.0000
     15 C15        -3.3416    0.5718   -1.2395 C.3       1 <0>         0.0000
     16 N1          1.6681    0.0834   -0.9557 N.3       1 <0>         0.0000
     17 N2          2.6023   -1.0670    4.9540 N.am      1 <0>         0.0000
     18 N3          2.8469   -0.6810    3.6590 N.am      1 <0>         0.0000
     19 O1          3.7083   -3.0847    4.6892 O.2       1 <0>         0.0000
     20 O2          0.8915   -1.6405    2.8632 O.2       1 <0>         0.0000
     21 O3          3.2186   -1.5159    0.7230 O.3       1 <0>         0.0000
     22 S1         -2.0977   -0.2515   -0.2193 S.3       1 <0>         0.0000
     23 Cl1         2.2994   -5.9333    9.0073 Cl        1 <0>         0.0000
     24 H1          2.2173   -1.1422    9.8023 H         1 <0>         0.0000
     25 H2          2.6929   -0.5718    7.4466 H         1 <0>         0.0000
     26 H3          2.0407   -3.5019   10.5034 H         1 <0>         0.0000
     27 H4          2.8236   -4.7591    6.4570 H         1 <0>         0.0000
     28 H5         -4.6663   -1.1363   -1.3453 H         1 <0>         0.0000
     29 H6         -4.8772    0.0053   -2.6747 H         1 <0>         0.0000
     30 H7         -3.4774   -1.0886   -2.6519 H         1 <0>         0.0000
     31 H8         -4.7949    0.7719    0.3515 H         1 <0>         0.0000
     32 H9         -5.0077    1.9429   -0.9517 H         1 <0>         0.0000
     33 H10        -3.6957    2.1500    0.2280 H         1 <0>         0.0000
     34 H11        -0.1531    0.5335    1.9082 H         1 <0>         0.0000
     35 H12         0.7975    1.7493    1.0822 H         1 <0>         0.0000
     36 H13        -0.6573    1.5138   -0.9268 H         1 <0>         0.0000
     37 H14        -1.5832    1.9849    0.4933 H         1 <0>         0.0000
     38 H15         2.9484    0.3859    1.4229 H         1 <0>         0.0000
     39 H16         0.5915   -1.2082    0.2610 H         1 <0>         0.0000
     40 H17        -2.8138    1.2291   -1.9386 H         1 <0>         0.0000
     41 H18         0.8845    0.1717   -1.5934 H         1 <0>         0.0000
     42 H19         2.2416   -0.6802   -1.2969 H         1 <0>         0.0000
     43 H20         2.0849   -0.4638    5.5841 H         1 <0>         0.0000
     44 H21         3.6858   -0.1599    3.4266 H         1 <0>         0.0000
     45 H22         2.7041   -2.3378    0.6655 H         1 <0>         0.0000
@<TRIPOS>BOND
     1    1    2 ar
     2    1    3 ar
     3    2    5 ar
     4    3    6 ar
     5    4    5 ar
     6    4    6 ar
     7    5    7 1
     8    6   23 1
     9    7   17 am
    10    7   19 2
    11    8   13 1
    12    8   18 am
    13    8   20 2
    14    9   15 1
    15   10   15 1
    16   11   12 1
    17   11   14 1
    18   12   22 1
    19   13   14 1
    20   13   21 1
    21   14   16 1
    22   15   22 1
    23   17   18 1
    24    1   24 1
    25    2   25 1
    26    3   26 1
    27    4   27 1
    28    9   28 1
    29    9   29 1
    30    9   30 1
    31   10   31 1
    32   10   32 1
    33   10   33 1
    34   11   34 1
    35   11   35 1
    36   12   36 1
    37   12   37 1
    38   13   38 1
    39   14   39 1
    40   15   40 1
    41   16   41 1
    42   16   42 1
    43   17   43 1
    44   18   44 1
    45   21   45 1
@<TRIPOS>MOLECULE
LIGAND
   45    45     0     0     0
SMALL
NO_CHARGES

@<TRIPOS>ATOM
      1 C1         -0.8568   -0.8437    8.7635 C.ar      1 <0>         0.0000
      2 C2         -0.6134   -0.4635    7.4437 C.ar      1 <0>         0.0000
      3 C3          0.2081   -1.1727    9.6022 C.ar      1 <0>         0.0000
      4 C4          1.7598   -0.7415    7.8013 C.ar      1 <0>         0.0000
      5 C5          0.6949   -0.4125    6.9626 C.ar      1 <0>         0.0000
      6 C6          1.5164   -1.1216    9.1211 C.ar      1 <0>         0.0000
      7 C7          0.9532   -0.0081    5.5563 C.2       1 <0>         0.0000
      8 C8          1.9325   -1.0133    2.6768 C.2       1 <0>         0.0000
      9 C9         -4.1299   -0.4675   -2.0276 C.3       1 <0>         0.0000
     10 C10        -4.2566    1.4118   -0.3565 C.3       1 <0>         0.0000
     11 C11         0.2195    0.8307    0.9188 C.3       1 <0>         0.0000
     12 C12        -1.0001    1.1700    0.0549 C.3       1 <0>         0.0000
     13 C13         2.3649   -0.5352    1.2935 C.3       1 <0>         0.0000
     14 C14         1.1534   -0.2750    0.3710 C.3       1 <0>         0.0000
     15 C15        -3.3416    0.5718   -1.2395 C.3       1 <0>         0.0000
     16 N1          1.6681    0.0834   -0.9557 N.3       1 <0>         0.0000
     17 N2          2.1084   -0.5131    4.9911 N.am      1 <0>         0.0000
     18 N3          2.3999   -0.1941    3.6876 N.am      1 <0>         0.0000
     19 O1          0.1465    0.7178    4.9806 O.2       1 <0>         0.0000
     20 O2          1.2610   -2.0296    2.8442 O.2       1 <0>         0.0000
     21 O3          3.2186   -1.5159    0.7230 O.3       1 <0>         0.0000
     22 S1         -2.0977   -0.2515   -0.2193 S.3       1 <0>         0.0000
     23 Cl1         2.8299   -1.5272   10.1568 Cl        1 <0>         0.0000
     24 H1         -1.8754   -0.8830    9.1379 H         1 <0>         0.0000
     25 H2         -1.4514   -0.2096    6.7997 H         1 <0>         0.0000
     26 H3          0.0031   -1.4671   10.6283 H         1 <0>         0.0000
     27 H4          2.7794   -0.7003    7.4234 H         1 <0>         0.0000
     28 H5         -4.6663   -1.1363   -1.3453 H         1 <0>         0.0000
     29 H6         -4.8772    0.0053   -2.6747 H         1 <0>         0.0000
     30 H7         -3.4774   -1.0886   -2.6519 H         1 <0>         0.0000
     31 H8         -4.7949    0.7719    0.3515 H         1 <0>         0.0000
     32 H9         -5.0077    1.9429   -0.9517 H         1 <0>         0.0000
     33 H10        -3.6957    2.1500    0.2280 H         1 <0>         0.0000
     34 H11        -0.1531    0.5335    1.9082 H         1 <0>         0.0000
     35 H12         0.7975    1.7493    1.0822 H         1 <0>         0.0000
     36 H13        -0.6573    1.5138   -0.9268 H         1 <0>         0.0000
     37 H14        -1.5832    1.9849    0.4933 H         1 <0>         0.0000
     38 H15         2.9484    0.3859    1.4229 H         1 <0>         0.0000
     39 H16         0.5915   -1.2082    0.2610 H         1 <0>         0.0000
     40 H17        -2.8138    1.2291   -1.9386 H         1 <0>         0.0000
     41 H18         0.8845    0.1717   -1.5934 H         1 <0>         0.0000
     42 H19         2.2416   -0.6802   -1.2969 H         1 <0>         0.0000
     43 H20         2.7293   -1.1081    5.5287 H         1 <0>         0.0000
     44 H21         2.9499    0.6302    3.4697 H         1 <0>         0.0000
     45 H22         2.7041   -2.3378    0.6655 H         1 <0>         0.0000
@<TRIPOS>BOND
     1    1    2 ar
     2    1    3 ar
     3    2    5 ar
     4    3    6 ar
     5    4    5 ar
     6    4    6 ar
     7    5    7 1
     8    6   23 1
     9    7   17 am
    10    7   19 2
    11    8   13 1
    12    8   18 am
    13    8   20 2
    14    9   15 1
    15   10   15 1
    16   11   12 1
    17   11   14 1
    18   12   22 1
    19   13   14 1
    20   13   21 1
    21   14   16 1
    22   15   22 1
    23   17   18 1
    24    1   24 1
    25    2   25 1
    26    3   26 1
    27    4   27 1
    28    9   28 1
    29    9   29 1
    30    9   30 1
    31   10   31 1
    32   10   32 1
    33   10   33 1
    34   11   34 1
    35   11   35 1
    36   12   36 1
    37   12   37 1
    38   13   38 1
    39   14   39 1
    40   15   40 1
    41   16   41 1
    42   16   42 1
    43   17   43 1
    44   18   44 1
    45   21   45 1
@<TRIPOS>MOLECULE
LIGAND
   45    45     0     0     0
SMALL
NO_CHARGES

@<TRIPOS>ATOM
      1 C1          2.3084   -2.0825    9.0344 C.ar      1 <0>         0.0000
      2 C2          2.5351   -1.6185    7.7387 C.ar      1 <0>         0.0000
      3 C3          1.1971   -1.6371    9.7503 C.ar      1 <0>         0.0000
      4 C4          0.5395   -0.2636    7.8747 C.ar      1 <0>         0.0000
      5 C5          1.6507   -0.7090    7.1588 C.ar      1 <0>         0.0000
      6 C6          0.3127   -0.7276    9.1704 C.ar      1 <0>         0.0000
      7 C7          1.8934   -0.2148    5.7787 C.2       1 <0>         0.0000
      8 C8          1.9325   -1.0133    2.6768 C.2       1 <0>         0.0000
      9 C9         -3.5953   -0.8020   -2.4330 C.3       1 <0>         0.0000
     10 C10        -4.0047    1.3935   -1.2699 C.3       1 <0>         0.0000
     11 C11         0.2195    0.8307    0.9188 C.3       1 <0>         0.0000
     12 C12        -1.0001    1.1700    0.0549 C.3       1 <0>         0.0000
     13 C13         2.3649   -0.5352    1.2935 C.3       1 <0>         0.0000
     14 C14         1.1534   -0.2750    0.3710 C.3       1 <0>         0.0000
     15 C15        -2.9606    0.3632   -1.6834 C.3       1 <0>         0.0000
     16 N1          1.6681    0.0834   -0.9557 N.3       1 <0>         0.0000
     17 N2          2.6023   -1.0670    4.9540 N.am      1 <0>         0.0000
     18 N3          2.8469   -0.6810    3.6590 N.am      1 <0>         0.0000
     19 O1          1.4534    0.8829    5.4461 O.2       1 <0>         0.0000
     20 O2          0.8915   -1.6405    2.8632 O.2       1 <0>         0.0000
     21 O3          3.2186   -1.5159    0.7230 O.3       1 <0>         0.0000
     22 S1         -2.0977   -0.2515   -0.2193 S.3       1 <0>         0.0000
     23 Cl1        -1.0586   -0.1788   10.0541 Cl        1 <0>         0.0000
     24 H1          2.9969   -2.7909    9.4856 H         1 <0>         0.0000
     25 H2          3.4046   -1.9729    7.1910 H         1 <0>         0.0000
     26 H3          1.0333   -2.0074   10.7590 H         1 <0>         0.0000
     27 H4         -0.1491    0.4455    7.4196 H         1 <0>         0.0000
     28 H5         -4.3436   -1.2969   -1.8040 H         1 <0>         0.0000
     29 H6         -4.1065   -0.4613   -3.3404 H         1 <0>         0.0000
     30 H7         -2.8540   -1.5571   -2.7183 H         1 <0>         0.0000
     31 H8         -4.7593    0.9323   -0.6229 H         1 <0>         0.0000
     32 H9         -4.5284    1.8023   -2.1412 H         1 <0>         0.0000
     33 H10        -3.5593    2.2264   -0.7139 H         1 <0>         0.0000
     34 H11        -0.1531    0.5335    1.9082 H         1 <0>         0.0000
     35 H12         0.7975    1.7493    1.0822 H         1 <0>         0.0000
     36 H13        -0.6573    1.5138   -0.9268 H         1 <0>         0.0000
     37 H14        -1.5832    1.9849    0.4933 H         1 <0>         0.0000
     38 H15         2.9484    0.3859    1.4229 H         1 <0>         0.0000
     39 H16         0.5915   -1.2082    0.2610 H         1 <0>         0.0000
     40 H17        -2.2171    0.8435   -2.3283 H         1 <0>         0.0000
     41 H18         0.8845    0.1717   -1.5934 H         1 <0>         0.0000
     42 H19         2.2416   -0.6802   -1.2969 H         1 <0>         0.0000
     43 H20         2.9356   -1.9607    5.2985 H         1 <0>         0.0000
     44 H21         3.6858   -0.1599    3.4266 H         1 <0>         0.0000
     45 H22         2.7041   -2.3378    0.6655 H         1 <0>         0.0000
@<TRIPOS>BOND
     1    1    2 ar
     2    1    3 ar
     3    2    5 ar
     4    3    6 ar
     5    4    5 ar
     6    4    6 ar
     7    5    7 1
     8    6   23 1
     9    7   17 am
    10    7   19 2
    11    8   13 1
    12    8   18 am
    13    8   20 2
    14    9   15 1
    15   10   15 1
    16   11   12 1
    17   11   14 1
    18   12   22 1
    19   13   14 1
    20   13   21 1
    21   14   16 1
    22   15   22 1
    23   17   18 1
    24    1   24 1
    25    2   25 1
    26    3   26 1
    27    4   27 1
    28    9   28 1
    29    9   29 1
    30    9   30 1
    31   10   31 1
    32   10   32 1
    33   10   33 1
    34   11   34 1
    35   11   35 1
    36   12   36 1
    37   12   37 1
    38   13   38 1
    39   14   39 1
    40   15   40 1
    41   16   41 1
    42   16   42 1
    43   17   43 1
    44   18   44 1
    45   21   45 1
@<TRIPOS>MOLECULE
LIGAND
   45    45     0     0     0
SMALL
NO_CHARGES

@<TRIPOS>ATOM
      1 C1         -0.3007    0.0342    9.1181 C.ar      1 <0>         0.0000
      2 C2         -0.0572    0.4134    7.7980 C.ar      1 <0>         0.0000
      3 C3          0.2080   -1.1709    9.6027 C.ar      1 <0>         0.0000
      4 C4          1.2035   -1.6176    7.4472 C.ar      1 <0>         0.0000
      5 C5          0.6949   -0.4125    6.9626 C.ar      1 <0>         0.0000
      6 C6          0.9601   -1.9967    8.7673 C.ar      1 <0>         0.0000
      7 C7          0.9532   -0.0081    5.5563 C.2       1 <0>         0.0000
      8 C8          1.9325   -1.0133    2.6768 C.2       1 <0>         0.0000
      9 C9          1.4564    5.4762    1.2996 C.3       1 <0>         0.0000
     10 C10         0.2261    5.4824    3.4965 C.3       1 <0>         0.0000
     11 C11         0.2195    0.8307    0.9188 C.3       1 <0>         0.0000
     12 C12         0.8590    2.2074    1.1305 C.3       1 <0>         0.0000
     13 C13         2.3649   -0.5352    1.2935 C.3       1 <0>         0.0000
     14 C14         1.1534   -0.2750    0.3710 C.3       1 <0>         0.0000
     15 C15         0.8895    4.6225    2.4275 C.3       1 <0>         0.0000
     16 N1          1.6681    0.0834   -0.9557 N.3       1 <0>         0.0000
     17 N2          2.1084   -0.5131    4.9911 N.am      1 <0>         0.0000
     18 N3          2.3999   -0.1941    3.6876 N.am      1 <0>         0.0000
     19 O1          0.1465    0.7178    4.9806 O.2       1 <0>         0.0000
     20 O2          1.2610   -2.0296    2.8442 O.2       1 <0>         0.0000
     21 O3          3.2186   -1.5159    0.7230 O.3       1 <0>         0.0000
     22 S1         -0.3102    3.4478    1.7590 S.3       1 <0>         0.0000
     23 Cl1         1.5879   -3.4833    9.3661 Cl        1 <0>         0.0000
     24 H1         -0.8859    0.6775    9.7685 H         1 <0>         0.0000
     25 H2         -0.4589    1.3547    7.4319 H         1 <0>         0.0000
     26 H3          0.0102   -1.4532   10.6336 H         1 <0>         0.0000
     27 H4          1.7904   -2.2596    6.7933 H         1 <0>         0.0000
     28 H5          0.6599    6.0638    0.8297 H         1 <0>         0.0000
     29 H6          2.2059    6.1832    1.6727 H         1 <0>         0.0000
     30 H7          1.9195    4.8646    0.5169 H         1 <0>         0.0000
     31 H8         -0.5894    6.0701    3.0604 H         1 <0>         0.0000
     32 H9          0.9374    6.1894    3.9378 H         1 <0>         0.0000
     33 H10        -0.2008    4.8752    4.3030 H         1 <0>         0.0000
     34 H11        -0.6259    0.9652    0.2307 H         1 <0>         0.0000
     35 H12        -0.2197    0.5004    1.8688 H         1 <0>         0.0000
     36 H13         1.2423    2.5738    0.1722 H         1 <0>         0.0000
     37 H14         1.7108    2.1489    1.8142 H         1 <0>         0.0000
     38 H15         2.9484    0.3859    1.4229 H         1 <0>         0.0000
     39 H16         0.5915   -1.2082    0.2610 H         1 <0>         0.0000
     40 H17         1.7002    4.0441    2.8832 H         1 <0>         0.0000
     41 H18         0.8845    0.1717   -1.5934 H         1 <0>         0.0000
     42 H19         2.2416   -0.6802   -1.2969 H         1 <0>         0.0000
     43 H20         2.7293   -1.1081    5.5287 H         1 <0>         0.0000
     44 H21         2.9499    0.6302    3.4697 H         1 <0>         0.0000
     45 H22         2.7041   -2.3378    0.6655 H         1 <0>         0.0000
@<TRIPOS>BOND
     1    1    2 ar
     2    1    3 ar
     3    2    5 ar
     4    3    6 ar
     5    4    5 ar
     6    4    6 ar
     7    5    7 1
     8    6   23 1
     9    7   17 am
    10    7   19 2
    11    8   13 1
    12    8   18 am
    13    8   20 2
    14    9   15 1
    15   10   15 1
    16   11   12 1
    17   11   14 1
    18   12   22 1
    19   13   14 1
    20   13   21 1
    21   14   16 1
    22   15   22 1
    23   17   18 1
    24    1   24 1
    25    2   25 1
    26    3   26 1
    27    4   27 1
    28    9   28 1
    29    9   29 1
    30    9   30 1
    31   10   31 1
    32   10   32 1
    33   10   33 1
    34   11   34 1
    35   11   35 1
    36   12   36 1
    37   12   37 1
    38   13   38 1
    39   14   39 1
    40   15   40 1
    41   16   41 1
    42   16   42 1
    43   17   43 1
    44   18   44 1
    45   21   45 1
@<TRIPOS>MOLECULE
LIGAND
   45    45     0     0     0
SMALL
NO_CHARGES

@<TRIPOS>ATOM
      1 C1          2.3269   -0.7274    9.5675 C.ar      1 <0>         0.0000
      2 C2          2.7671   -0.4681    8.2696 C.ar      1 <0>         0.0000
      3 C3          1.0657   -1.2849    9.7779 C.ar      1 <0>         0.0000
      4 C4          0.6848   -1.3238    7.3925 C.ar      1 <0>         0.0000
      5 C5          1.9460   -0.7663    7.1821 C.ar      1 <0>         0.0000
      6 C6          0.2446   -1.5831    8.6904 C.ar      1 <0>         0.0000
      7 C7          2.4155   -0.4891    5.7998 C.2       1 <0>         0.0000
      8 C8          1.9325   -1.0133    2.6768 C.2       1 <0>         0.0000
      9 C9         -4.2967    1.3927   -0.3375 C.3       1 <0>         0.0000
     10 C10        -4.0071    3.8901   -0.4781 C.3       1 <0>         0.0000
     11 C11         0.2195    0.8307    0.9188 C.3       1 <0>         0.0000
     12 C12        -1.0001    1.1700    0.0549 C.3       1 <0>         0.0000
     13 C13         2.3649   -0.5352    1.2935 C.3       1 <0>         0.0000
     14 C14         1.1534   -0.2750    0.3710 C.3       1 <0>         0.0000
     15 C15        -3.3066    2.5373   -0.5169 C.3       1 <0>         0.0000
     16 N1          1.6681    0.0834   -0.9557 N.3       1 <0>         0.0000
     17 N2          1.4238   -0.2520    4.8674 N.am      1 <0>         0.0000
     18 N3          1.7877    0.0290    3.5734 N.am      1 <0>         0.0000
     19 O1          3.6213   -0.4699    5.5658 O.2       1 <0>         0.0000
     20 O2          1.7602   -2.2018    2.9407 O.2       1 <0>         0.0000
     21 O3          3.2186   -1.5159    0.7230 O.3       1 <0>         0.0000
     22 S1         -2.0492    2.4644    0.7791 S.3       1 <0>         0.0000
     23 Cl1        -1.3113   -2.2714    8.9508 Cl        1 <0>         0.0000
     24 H1          2.9664   -0.4955   10.4140 H         1 <0>         0.0000
     25 H2          3.7518   -0.0334    8.1183 H         1 <0>         0.0000
     26 H3          0.7362   -1.4814   10.7949 H         1 <0>         0.0000
     27 H4          0.0467   -1.5558    6.5422 H         1 <0>         0.0000
     28 H5         -4.8186    1.4878    0.6213 H         1 <0>         0.0000
     29 H6         -5.0586    1.3975   -1.1249 H         1 <0>         0.0000
     30 H7         -3.7990    0.4164   -0.3457 H         1 <0>         0.0000
     31 H8         -4.5245    4.0235    0.4785 H         1 <0>         0.0000
     32 H9         -4.7599    3.9723   -1.2700 H         1 <0>         0.0000
     33 H10        -3.2998    4.7201   -0.5881 H         1 <0>         0.0000
     34 H11        -0.1531    0.5335    1.9082 H         1 <0>         0.0000
     35 H12         0.7975    1.7493    1.0822 H         1 <0>         0.0000
     36 H13        -1.6176    0.2727   -0.0585 H         1 <0>         0.0000
     37 H14        -0.7009    1.4813   -0.9501 H         1 <0>         0.0000
     38 H15         2.9484    0.3859    1.4229 H         1 <0>         0.0000
     39 H16         0.5915   -1.2082    0.2610 H         1 <0>         0.0000
     40 H17        -2.7965    2.4239   -1.4795 H         1 <0>         0.0000
     41 H18         0.8845    0.1717   -1.5934 H         1 <0>         0.0000
     42 H19         2.2416   -0.6802   -1.2969 H         1 <0>         0.0000
     43 H20         0.4458   -0.2847    5.1337 H         1 <0>         0.0000
     44 H21         1.9478    0.9869    3.2798 H         1 <0>         0.0000
     45 H22         2.7041   -2.3378    0.6655 H         1 <0>         0.0000
@<TRIPOS>BOND
     1    1    2 ar
     2    1    3 ar
     3    2    5 ar
     4    3    6 ar
     5    4    5 ar
     6    4    6 ar
     7    5    7 1
     8    6   23 1
     9    7   17 am
    10    7   19 2
    11    8   13 1
    12    8   18 am
    13    8   20 2
    14    9   15 1
    15   10   15 1
    16   11   12 1
    17   11   14 1
    18   12   22 1
    19   13   14 1
    20   13   21 1
    21   14   16 1
    22   15   22 1
    23   17   18 1
    24    1   24 1
    25    2   25 1
    26    3   26 1
    27    4   27 1
    28    9   28 1
    29    9   29 1
    30    9   30 1
    31   10   31 1
    32   10   32 1
    33   10   33 1
    34   11   34 1
    35   11   35 1
    36   12   36 1
    37   12   37 1
    38   13   38 1
    39   14   39 1
    40   15   40 1
    41   16   41 1
    42   16   42 1
    43   17   43 1
    44   18   44 1
    45   21   45 1
@<TRIPOS>MOLECULE
LIGAND
   45    45     0     0     0
SMALL
NO_CHARGES

@<TRIPOS>ATOM
      1 C1          1.3691   -2.5452    8.7036 C.ar      1 <0>         0.0000
      2 C2          1.5963   -2.0804    7.4082 C.ar      1 <0>         0.0000
      3 C3          1.1963   -1.6386    9.7496 C.ar      1 <0>         0.0000
      4 C4          1.4779    0.1975    8.2048 C.ar      1 <0>         0.0000
      5 C5          1.6507   -0.7090    7.1588 C.ar      1 <0>         0.0000
      6 C6          1.2507   -0.2673    9.5002 C.ar      1 <0>         0.0000
      7 C7          1.8934   -0.2148    5.7787 C.2       1 <0>         0.0000
      8 C8          1.9325   -1.0133    2.6768 C.2       1 <0>         0.0000
      9 C9         -1.3566    4.2423   -1.1718 C.3       1 <0>         0.0000
     10 C10        -1.3823    5.0762    1.2040 C.3       1 <0>         0.0000
     11 C11         0.2195    0.8307    0.9188 C.3       1 <0>         0.0000
     12 C12        -1.0001    1.1700    0.0549 C.3       1 <0>         0.0000
     13 C13         2.3649   -0.5352    1.2935 C.3       1 <0>         0.0000
     14 C14         1.1534   -0.2750    0.3710 C.3       1 <0>         0.0000
     15 C15        -1.0699    3.9009    0.2855 C.3       1 <0>         0.0000
     16 N1          1.6681    0.0834   -0.9557 N.3       1 <0>         0.0000
     17 N2          2.6023   -1.0670    4.9540 N.am      1 <0>         0.0000
     18 N3          2.8469   -0.6810    3.6590 N.am      1 <0>         0.0000
     19 O1          1.4534    0.8829    5.4461 O.2       1 <0>         0.0000
     20 O2          0.8915   -1.6405    2.8632 O.2       1 <0>         0.0000
     21 O3          3.2186   -1.5159    0.7230 O.3       1 <0>         0.0000
     22 S1         -2.0492    2.4644    0.7791 S.3       1 <0>         0.0000
     23 Cl1         1.0368    0.8507   10.7913 Cl        1 <0>         0.0000
     24 H1          1.3265   -3.6129    8.8975 H         1 <0>         0.0000
     25 H2          1.7296   -2.7965    6.6014 H         1 <0>         0.0000
     26 H3          1.0200   -2.0156   10.7537 H         1 <0>         0.0000
     27 H4          1.5203    1.2667    8.0072 H         1 <0>         0.0000
     28 H5         -2.4105    4.5137   -1.2989 H         1 <0>         0.0000
     29 H6         -0.7576    5.0967   -1.5064 H         1 <0>         0.0000
     30 H7         -1.1520    3.3963   -1.8378 H         1 <0>         0.0000
     31 H8         -2.4367    5.3604    1.1134 H         1 <0>         0.0000
     32 H9         -0.7841    5.9563    0.9431 H         1 <0>         0.0000
     33 H10        -1.1964    4.8333    2.2564 H         1 <0>         0.0000
     34 H11        -0.1531    0.5335    1.9082 H         1 <0>         0.0000
     35 H12         0.7975    1.7493    1.0822 H         1 <0>         0.0000
     36 H13        -1.6176    0.2727   -0.0585 H         1 <0>         0.0000
     37 H14        -0.7009    1.4813   -0.9501 H         1 <0>         0.0000
     38 H15         2.9484    0.3859    1.4229 H         1 <0>         0.0000
     39 H16         0.5915   -1.2082    0.2610 H         1 <0>         0.0000
     40 H17        -0.0132    3.6330    0.3910 H         1 <0>         0.0000
     41 H18         0.8845    0.1717   -1.5934 H         1 <0>         0.0000
     42 H19         2.2416   -0.6802   -1.2969 H         1 <0>         0.0000
     43 H20         2.9356   -1.9607    5.2985 H         1 <0>         0.0000
     44 H21         3.6858   -0.1599    3.4266 H         1 <0>         0.0000
     45 H22         2.7041   -2.3378    0.6655 H         1 <0>         0.0000
@<TRIPOS>BOND
     1    1    2 ar
     2    1    3 ar
     3    2    5 ar
     4    3    6 ar
     5    4    5 ar
     6    4    6 ar
     7    5    7 1
     8    6   23 1
     9    7   17 am
    10    7   19 2
    11    8   13 1
    12    8   18 am
    13    8   20 2
    14    9   15 1
    15   10   15 1
    16   11   12 1
    17   11   14 1
    18   12   22 1
    19   13   14 1
    20   13   21 1
    21   14   16 1
    22   15   22 1
    23   17   18 1
    24    1   24 1
    25    2   25 1
    26    3   26 1
    27    4   27 1
    28    9   28 1
    29    9   29 1
    30    9   30 1
    31   10   31 1
    32   10   32 1
    33   10   33 1
    34   11   34 1
    35   11   35 1
    36   12   36 1
    37   12   37 1
    38   13   38 1
    39   14   39 1
    40   15   40 1
    41   16   41 1
    42   16   42 1
    43   17   43 1
    44   18   44 1
    45   21   45 1
@<TRIPOS>MOLECULE
LIGAND
   45    45     0     0     0
SMALL
NO_CHARGES

@<TRIPOS>ATOM
      1 C1          2.2867   -1.8006    9.3387 C.ar      1 <0>         0.0000
      2 C2          2.7263   -1.5405    8.0408 C.ar      1 <0>         0.0000
      3 C3          1.0666   -1.2866    9.7779 C.ar      1 <0>         0.0000
      4 C4          0.7260   -0.2522    7.6213 C.ar      1 <0>         0.0000
      5 C5          1.9460   -0.7663    7.1821 C.ar      1 <0>         0.0000
      6 C6          0.2863   -0.5124    8.9192 C.ar      1 <0>         0.0000
      7 C7          2.4155   -0.4891    5.7998 C.2       1 <0>         0.0000
      8 C8          1.9325   -1.0133    2.6768 C.2       1 <0>         0.0000
      9 C9         -4.2967    1.3927   -0.3375 C.3       1 <0>         0.0000
     10 C10        -4.0071    3.8901   -0.4781 C.3       1 <0>         0.0000
     11 C11         0.2195    0.8307    0.9188 C.3       1 <0>         0.0000
     12 C12        -1.0001    1.1700    0.0549 C.3       1 <0>         0.0000
     13 C13         2.3649   -0.5352    1.2935 C.3       1 <0>         0.0000
     14 C14         1.1534   -0.2750    0.3710 C.3       1 <0>         0.0000
     15 C15        -3.3066    2.5373   -0.5169 C.3       1 <0>         0.0000
     16 N1          1.6681    0.0834   -0.9557 N.3       1 <0>         0.0000
     17 N2          1.4238   -0.2520    4.8674 N.am      1 <0>         0.0000
     18 N3          1.7877    0.0290    3.5734 N.am      1 <0>         0.0000
     19 O1          3.6213   -0.4699    5.5658 O.2       1 <0>         0.0000
     20 O2          1.7602   -2.2018    2.9407 O.2       1 <0>         0.0000
     21 O3          3.2186   -1.5159    0.7230 O.3       1 <0>         0.0000
     22 S1         -2.0492    2.4644    0.7791 S.3       1 <0>         0.0000
     23 Cl1        -1.2194    0.1212    9.4617 Cl        1 <0>         0.0000
     24 H1          2.8942   -2.4037   10.0070 H         1 <0>         0.0000
     25 H2          3.6789   -1.9464    7.7100 H         1 <0>         0.0000
     26 H3          0.7369   -1.4976   10.7919 H         1 <0>         0.0000
     27 H4          0.1191    0.3510    6.9490 H         1 <0>         0.0000
     28 H5         -4.8186    1.4878    0.6213 H         1 <0>         0.0000
     29 H6         -5.0586    1.3975   -1.1249 H         1 <0>         0.0000
     30 H7         -3.7990    0.4164   -0.3457 H         1 <0>         0.0000
     31 H8         -4.5245    4.0235    0.4785 H         1 <0>         0.0000
     32 H9         -4.7599    3.9723   -1.2700 H         1 <0>         0.0000
     33 H10        -3.2998    4.7201   -0.5881 H         1 <0>         0.0000
     34 H11        -0.1531    0.5335    1.9082 H         1 <0>         0.0000
     35 H12         0.7975    1.7493    1.0822 H         1 <0>         0.0000
     36 H13        -1.6176    0.2727   -0.0585 H         1 <0>         0.0000
     37 H14        -0.7009    1.4813   -0.9501 H         1 <0>         0.0000
     38 H15         2.9484    0.3859    1.4229 H         1 <0>         0.0000
     39 H16         0.5915   -1.2082    0.2610 H         1 <0>         0.0000
     40 H17        -2.7965    2.4239   -1.4795 H         1 <0>         0.0000
     41 H18         0.8845    0.1717   -1.5934 H         1 <0>         0.0000
     42 H19         2.2416   -0.6802   -1.2969 H         1 <0>         0.0000
     43 H20         0.4458   -0.2847    5.1337 H         1 <0>         0.0000
     44 H21         1.9478    0.9869    3.2798 H         1 <0>         0.0000
     45 H22         2.7041   -2.3378    0.6655 H         1 <0>         0.0000
@<TRIPOS>BOND
     1    1    2 ar
     2    1    3 ar
     3    2    5 ar
     4    3    6 ar
     5    4    5 ar
     6    4    6 ar
     7    5    7 1
     8    6   23 1
     9    7   17 am
    10    7   19 2
    11    8   13 1
    12    8   18 am
    13    8   20 2
    14    9   15 1
    15   10   15 1
    16   11   12 1
    17   11   14 1
    18   12   22 1
    19   13   14 1
    20   13   21 1
    21   14   16 1
    22   15   22 1
    23   17   18 1
    24    1   24 1
    25    2   25 1
    26    3   26 1
    27    4   27 1
    28    9   28 1
    29    9   29 1
    30    9   30 1
    31   10   31 1
    32   10   32 1
    33   10   33 1
    34   11   34 1
    35   11   35 1
    36   12   36 1
    37   12   37 1
    38   13   38 1
    39   14   39 1
    40   15   40 1
    41   16   41 1
    42   16   42 1
    43   17   43 1
    44   18   44 1
    45   21   45 1
@<TRIPOS>MOLECULE
LIGAND
   45    45     0     0     0
SMALL
NO_CHARGES

@<TRIPOS>ATOM
      1 C1          1.5193   -1.1198    9.1205 C.ar      1 <0>         0.0000
      2 C2          1.7609   -0.7407    7.8001 C.ar      1 <0>         0.0000
      3 C3          0.2116   -1.1709    9.6034 C.ar      1 <0>         0.0000
      4 C4         -0.6128   -0.4635    7.4454 C.ar      1 <0>         0.0000
      5 C5          0.6949   -0.4125    6.9626 C.ar      1 <0>         0.0000
      6 C6         -0.8544   -0.8427    8.7658 C.ar      1 <0>         0.0000
      7 C7          0.9532   -0.0081    5.5563 C.2       1 <0>         0.0000
      8 C8          1.9325   -1.0133    2.6768 C.2       1 <0>         0.0000
      9 C9          1.4564    5.4762    1.2996 C.3       1 <0>         0.0000
     10 C10         0.2261    5.4824    3.4965 C.3       1 <0>         0.0000
     11 C11         0.2195    0.8307    0.9188 C.3       1 <0>         0.0000
     12 C12         0.8590    2.2074    1.1305 C.3       1 <0>         0.0000
     13 C13         2.3649   -0.5352    1.2935 C.3       1 <0>         0.0000
     14 C14         1.1534   -0.2750    0.3710 C.3       1 <0>         0.0000
     15 C15         0.8895    4.6225    2.4275 C.3       1 <0>         0.0000
     16 N1          1.6681    0.0834   -0.9557 N.3       1 <0>         0.0000
     17 N2          2.1084   -0.5131    4.9911 N.am      1 <0>         0.0000
     18 N3          2.3999   -0.1941    3.6876 N.am      1 <0>         0.0000
     19 O1          0.1465    0.7178    4.9806 O.2       1 <0>         0.0000
     20 O2          1.2610   -2.0296    2.8442 O.2       1 <0>         0.0000
     21 O3          3.2186   -1.5159    0.7230 O.3       1 <0>         0.0000
     22 S1         -0.3102    3.4478    1.7590 S.3       1 <0>         0.0000
     23 Cl1        -2.4677   -0.9064    9.3621 Cl        1 <0>         0.0000
     24 H1          2.3494   -1.3756    9.7724 H         1 <0>         0.0000
     25 H2          2.7843   -0.7045    7.4354 H         1 <0>         0.0000
     26 H3          0.0388   -1.4681   10.6345 H         1 <0>         0.0000
     27 H4         -1.4425   -0.2075    6.7896 H         1 <0>         0.0000
     28 H5          0.6599    6.0638    0.8297 H         1 <0>         0.0000
     29 H6          2.2059    6.1832    1.6727 H         1 <0>         0.0000
     30 H7          1.9195    4.8646    0.5169 H         1 <0>         0.0000
     31 H8         -0.5894    6.0701    3.0604 H         1 <0>         0.0000
     32 H9          0.9374    6.1894    3.9378 H         1 <0>         0.0000
     33 H10        -0.2008    4.8752    4.3030 H         1 <0>         0.0000
     34 H11        -0.6259    0.9652    0.2307 H         1 <0>         0.0000
     35 H12        -0.2197    0.5004    1.8688 H         1 <0>         0.0000
     36 H13         1.2423    2.5738    0.1722 H         1 <0>         0.0000
     37 H14         1.7108    2.1489    1.8142 H         1 <0>         0.0000
     38 H15         2.9484    0.3859    1.4229 H         1 <0>         0.0000
     39 H16         0.5915   -1.2082    0.2610 H         1 <0>         0.0000
     40 H17         1.7002    4.0441    2.8832 H         1 <0>         0.0000
     41 H18         0.8845    0.1717   -1.5934 H         1 <0>         0.0000
     42 H19         2.2416   -0.6802   -1.2969 H         1 <0>         0.0000
     43 H20         2.7293   -1.1081    5.5287 H         1 <0>         0.0000
     44 H21         2.9499    0.6302    3.4697 H         1 <0>         0.0000
     45 H22         2.7041   -2.3378    0.6655 H         1 <0>         0.0000
@<TRIPOS>BOND
     1    1    2 ar
     2    1    3 ar
     3    2    5 ar
     4    3    6 ar
     5    4    5 ar
     6    4    6 ar
     7    5    7 1
     8    6   23 1
     9    7   17 am
    10    7   19 2
    11    8   13 1
    12    8   18 am
    13    8   20 2
    14    9   15 1
    15   10   15 1
    16   11   12 1
    17   11   14 1
    18   12   22 1
    19   13   14 1
    20   13   21 1
    21   14   16 1
    22   15   22 1
    23   17   18 1
    24    1   24 1
    25    2   25 1
    26    3   26 1
    27    4   27 1
    28    9   28 1
    29    9   29 1
    30    9   30 1
    31   10   31 1
    32   10   32 1
    33   10   33 1
    34   11   34 1
    35   11   35 1
    36   12   36 1
    37   12   37 1
    38   13   38 1
    39   14   39 1
    40   15   40 1
    41   16   41 1
    42   16   42 1
    43   17   43 1
    44   18   44 1
    45   21   45 1
@<TRIPOS>MOLECULE
LIGAND
   45    45     0     0     0
SMALL
NO_CHARGES

@<TRIPOS>ATOM
      1 C1         -0.8688   -1.7203    8.2676 C.ar      1 <0>         0.0000
      2 C2         -0.4721   -1.3756    6.9756 C.ar      1 <0>         0.0000
      3 C3         -1.6746   -0.8524    9.0047 C.ar      1 <0>         0.0000
      4 C4         -1.6869    0.7048    7.1576 C.ar      1 <0>         0.0000
      5 C5         -0.8811   -0.1631    6.4206 C.ar      1 <0>         0.0000
      6 C6         -2.0836    0.3601    8.4497 C.ar      1 <0>         0.0000
      7 C7         -0.4576    0.2036    5.0443 C.2       1 <0>         0.0000
      8 C8          1.9325   -1.0133    2.6768 C.2       1 <0>         0.0000
      9 C9          2.1016    5.5550   -0.7655 C.3       1 <0>         0.0000
     10 C10         3.8195    4.0640    0.3143 C.3       1 <0>         0.0000
     11 C11         1.5761    0.1765   -1.0474 C.3       1 <0>         0.0000
     12 C12         2.3784    1.4800   -1.1273 C.3       1 <0>         0.0000
     13 C13         2.3649   -0.5352    1.2935 C.3       1 <0>         0.0000
     14 C14         1.1534   -0.2750    0.3710 C.3       1 <0>         0.0000
     15 C15         2.7418    4.1721   -0.7577 C.3       1 <0>         0.0000
     16 N1          0.3597   -1.5080    0.3138 N.3       1 <0>         0.0000
     17 N2          0.7320   -0.3536    4.6161 N.am      1 <0>         0.0000
     18 N3          1.1743   -0.0714    3.3469 N.am      1 <0>         0.0000
     19 O1         -1.1696    0.9461    4.3728 O.2       1 <0>         0.0000
     20 O2          2.2555   -2.1109    3.1269 O.2       1 <0>         0.0000
     21 O3          3.2186   -1.5159    0.7230 O.3       1 <0>         0.0000
     22 S1          1.4741    2.9151   -0.4766 S.3       1 <0>         0.0000
     23 Cl1        -3.0783    1.4303    9.3596 Cl        1 <0>         0.0000
     24 H1         -0.5505   -2.6646    8.6994 H         1 <0>         0.0000
     25 H2          0.1559   -2.0601    6.4111 H         1 <0>         0.0000
     26 H3         -1.9758   -1.1345   10.0103 H         1 <0>         0.0000
     27 H4         -2.0049    1.6499    6.7219 H         1 <0>         0.0000
     28 H5          1.6476    5.7697    0.2083 H         1 <0>         0.0000
     29 H6          2.8444    6.3372   -0.9581 H         1 <0>         0.0000
     30 H7          1.3123    5.6360   -1.5215 H         1 <0>         0.0000
     31 H8          3.3919    4.2558    1.3048 H         1 <0>         0.0000
     32 H9          4.6156    4.7998    0.1551 H         1 <0>         0.0000
     33 H10         4.2729    3.0665    0.3392 H         1 <0>         0.0000
     34 H11         2.1843   -0.6108   -1.5125 H         1 <0>         0.0000
     35 H12         0.6847    0.2765   -1.6798 H         1 <0>         0.0000
     36 H13         2.6151    1.6893   -2.1758 H         1 <0>         0.0000
     37 H14         3.3304    1.3937   -0.5957 H         1 <0>         0.0000
     38 H15         2.9484    0.3859    1.4229 H         1 <0>         0.0000
     39 H16         0.5249    0.4957    0.8291 H         1 <0>         0.0000
     40 H17         3.1890    3.9773   -1.7383 H         1 <0>         0.0000
     41 H18        -0.4842   -1.3249   -0.2178 H         1 <0>         0.0000
     42 H19         0.0690   -1.7492    1.2550 H         1 <0>         0.0000
     43 H20         1.2684   -0.9594    5.2274 H         1 <0>         0.0000
     44 H21         0.9480    0.8148    2.9078 H         1 <0>         0.0000
     45 H22         2.7041   -2.3378    0.6655 H         1 <0>         0.0000
@<TRIPOS>BOND
     1    1    2 ar
     2    1    3 ar
     3    2    5 ar
     4    3    6 ar
     5    4    5 ar
     6    4    6 ar
     7    5    7 1
     8    6   23 1
     9    7   17 am
    10    7   19 2
    11    8   13 1
    12    8   18 am
    13    8   20 2
    14    9   15 1
    15   10   15 1
    16   11   12 1
    17   11   14 1
    18   12   22 1
    19   13   14 1
    20   13   21 1
    21   14   16 1
    22   15   22 1
    23   17   18 1
    24    1   24 1
    25    2   25 1
    26    3   26 1
    27    4   27 1
    28    9   28 1
    29    9   29 1
    30    9   30 1
    31   10   31 1
    32   10   32 1
    33   10   33 1
    34   11   34 1
    35   11   35 1
    36   12   36 1
    37   12   37 1
    38   13   38 1
    39   14   39 1
    40   15   40 1
    41   16   41 1
    42   16   42 1
    43   17   43 1
    44   18   44 1
    45   21   45 1
@<TRIPOS>MOLECULE
LIGAND
   45    45     0     0     0
SMALL
NO_CHARGES

@<TRIPOS>ATOM
      1 C1          3.3674   -3.8174    8.8247 C.ar      1 <0>         0.0000
      2 C2          3.6347   -3.4983    7.4934 C.ar      1 <0>         0.0000
      3 C3          2.2539   -3.2710    9.4629 C.ar      1 <0>         0.0000
      4 C4          1.6751   -2.0863    7.4384 C.ar      1 <0>         0.0000
      5 C5          2.7886   -2.6327    6.8003 C.ar      1 <0>         0.0000
      6 C6          1.4078   -2.4054    8.7697 C.ar      1 <0>         0.0000
      7 C7          3.0744   -2.2928    5.3823 C.2       1 <0>         0.0000
      8 C8          1.9325   -1.0133    2.6768 C.2       1 <0>         0.0000
      9 C9         -4.1299   -0.4675   -2.0276 C.3       1 <0>         0.0000
     10 C10        -4.2566    1.4118   -0.3565 C.3       1 <0>         0.0000
     11 C11         0.2195    0.8307    0.9188 C.3       1 <0>         0.0000
     12 C12        -1.0001    1.1700    0.0549 C.3       1 <0>         0.0000
     13 C13         2.3649   -0.5352    1.2935 C.3       1 <0>         0.0000
     14 C14         1.1534   -0.2750    0.3710 C.3       1 <0>         0.0000
     15 C15        -3.3416    0.5718   -1.2395 C.3       1 <0>         0.0000
     16 N1          1.6681    0.0834   -0.9557 N.3       1 <0>         0.0000
     17 N2          2.6023   -1.0670    4.9540 N.am      1 <0>         0.0000
     18 N3          2.8469   -0.6810    3.6590 N.am      1 <0>         0.0000
     19 O1          3.7083   -3.0847    4.6892 O.2       1 <0>         0.0000
     20 O2          0.8915   -1.6405    2.8632 O.2       1 <0>         0.0000
     21 O3          3.2186   -1.5159    0.7230 O.3       1 <0>         0.0000
     22 S1         -2.0977   -0.2515   -0.2193 S.3       1 <0>         0.0000
     23 Cl1         0.0337   -1.7319    9.5577 Cl        1 <0>         0.0000
     24 H1          4.0262   -4.4916    9.3641 H         1 <0>         0.0000
     25 H2          4.5055   -3.9303    7.0070 H         1 <0>         0.0000
     26 H3          2.0583   -3.5288   10.5005 H         1 <0>         0.0000
     27 H4          1.0164   -1.4117    6.8951 H         1 <0>         0.0000
     28 H5         -4.6663   -1.1363   -1.3453 H         1 <0>         0.0000
     29 H6         -4.8772    0.0053   -2.6747 H         1 <0>         0.0000
     30 H7         -3.4774   -1.0886   -2.6519 H         1 <0>         0.0000
     31 H8         -4.7949    0.7719    0.3515 H         1 <0>         0.0000
     32 H9         -5.0077    1.9429   -0.9517 H         1 <0>         0.0000
     33 H10        -3.6957    2.1500    0.2280 H         1 <0>         0.0000
     34 H11        -0.1531    0.5335    1.9082 H         1 <0>         0.0000
     35 H12         0.7975    1.7493    1.0822 H         1 <0>         0.0000
     36 H13        -0.6573    1.5138   -0.9268 H         1 <0>         0.0000
     37 H14        -1.5832    1.9849    0.4933 H         1 <0>         0.0000
     38 H15         2.9484    0.3859    1.4229 H         1 <0>         0.0000
     39 H16         0.5915   -1.2082    0.2610 H         1 <0>         0.0000
     40 H17        -2.8138    1.2291   -1.9386 H         1 <0>         0.0000
     41 H18         0.8845    0.1717   -1.5934 H         1 <0>         0.0000
     42 H19         2.2416   -0.6802   -1.2969 H         1 <0>         0.0000
     43 H20         2.0849   -0.4638    5.5841 H         1 <0>         0.0000
     44 H21         3.6858   -0.1599    3.4266 H         1 <0>         0.0000
     45 H22         2.7041   -2.3378    0.6655 H         1 <0>         0.0000
@<TRIPOS>BOND
     1    1    2 ar
     2    1    3 ar
     3    2    5 ar
     4    3    6 ar
     5    4    5 ar
     6    4    6 ar
     7    5    7 1
     8    6   23 1
     9    7   17 am
    10    7   19 2
    11    8   13 1
    12    8   18 am
    13    8   20 2
    14    9   15 1
    15   10   15 1
    16   11   12 1
    17   11   14 1
    18   12   22 1
    19   13   14 1
    20   13   21 1
    21   14   16 1
    22   15   22 1
    23   17   18 1
    24    1   24 1
    25    2   25 1
    26    3   26 1
    27    4   27 1
    28    9   28 1
    29    9   29 1
    30    9   30 1
    31   10   31 1
    32   10   32 1
    33   10   33 1
    34   11   34 1
    35   11   35 1
    36   12   36 1
    37   12   37 1
    38   13   38 1
    39   14   39 1
    40   15   40 1
    41   16   41 1
    42   16   42 1
    43   17   43 1
    44   18   44 1
    45   21   45 1
@<TRIPOS>MOLECULE
LIGAND
   45    45     0     0     0
SMALL
NO_CHARGES

@<TRIPOS>ATOM
      1 C1         -1.1645   -4.0126    7.3433 C.ar      1 <0>         0.0000
      2 C2         -0.7244   -3.5147    6.1169 C.ar      1 <0>         0.0000
      3 C3         -1.4283   -5.3745    7.4889 C.ar      1 <0>         0.0000
      4 C4         -0.8121   -5.7406    5.1817 C.ar      1 <0>         0.0000
      5 C5         -0.5482   -4.3787    5.0361 C.ar      1 <0>         0.0000
      6 C6         -1.2522   -6.2385    6.4082 C.ar      1 <0>         0.0000
      7 C7         -0.0800   -3.8473    3.7299 C.2       1 <0>         0.0000
      8 C8          1.9325   -1.0133    2.6768 C.2       1 <0>         0.0000
      9 C9         -4.0623    0.8550    1.3177 C.3       1 <0>         0.0000
     10 C10        -3.5584   -1.5885    1.6583 C.3       1 <0>         0.0000
     11 C11         0.2195    0.8307    0.9188 C.3       1 <0>         0.0000
     12 C12        -1.0001    1.1700    0.0549 C.3       1 <0>         0.0000
     13 C13         2.3649   -0.5352    1.2935 C.3       1 <0>         0.0000
     14 C14         1.1534   -0.2750    0.3710 C.3       1 <0>         0.0000
     15 C15        -2.9754   -0.2124    1.3599 C.3       1 <0>         0.0000
     16 N1          1.6681    0.0834   -0.9557 N.3       1 <0>         0.0000
     17 N2          0.6851   -2.6985    3.7909 N.am      1 <0>         0.0000
     18 N3          1.1665   -2.1628    2.6216 N.am      1 <0>         0.0000
     19 O1         -0.3732   -4.4442    2.6969 O.2       1 <0>         0.0000
     20 O2          2.2299   -0.4108    3.7066 O.2       1 <0>         0.0000
     21 O3          3.2186   -1.5159    0.7230 O.3       1 <0>         0.0000
     22 S1         -2.0977   -0.2515   -0.2193 S.3       1 <0>         0.0000
     23 Cl1        -1.5775   -7.9191    6.5887 Cl        1 <0>         0.0000
     24 H1         -1.3012   -3.3398    8.1847 H         1 <0>         0.0000
     25 H2         -0.5221   -2.4515    6.0157 H         1 <0>         0.0000
     26 H3         -1.7707   -5.7481    8.4506 H         1 <0>         0.0000
     27 H4         -0.6733   -6.4124    4.3370 H         1 <0>         0.0000
     28 H5         -4.8019    0.6148    0.5457 H         1 <0>         0.0000
     29 H6         -4.5966    0.9180    2.2722 H         1 <0>         0.0000
     30 H7         -3.6542    1.8453    1.0855 H         1 <0>         0.0000
     31 H8         -4.2902   -1.8663    0.8915 H         1 <0>         0.0000
     32 H9         -4.0769   -1.6012    2.6234 H         1 <0>         0.0000
     33 H10        -2.7856   -2.3656    1.6725 H         1 <0>         0.0000
     34 H11        -0.1531    0.5335    1.9082 H         1 <0>         0.0000
     35 H12         0.7975    1.7493    1.0822 H         1 <0>         0.0000
     36 H13        -0.6573    1.5138   -0.9268 H         1 <0>         0.0000
     37 H14        -1.5832    1.9849    0.4933 H         1 <0>         0.0000
     38 H15         2.9484    0.3859    1.4229 H         1 <0>         0.0000
     39 H16         0.5915   -1.2082    0.2610 H         1 <0>         0.0000
     40 H17        -2.2476    0.0460    2.1366 H         1 <0>         0.0000
     41 H18         0.8845    0.1717   -1.5934 H         1 <0>         0.0000
     42 H19         2.2416   -0.6802   -1.2969 H         1 <0>         0.0000
     43 H20         0.8873   -2.2591    4.6823 H         1 <0>         0.0000
     44 H21         0.9630   -2.6038    1.7309 H         1 <0>         0.0000
     45 H22         2.7041   -2.3378    0.6655 H         1 <0>         0.0000
@<TRIPOS>BOND
     1    1    2 ar
     2    1    3 ar
     3    2    5 ar
     4    3    6 ar
     5    4    5 ar
     6    4    6 ar
     7    5    7 1
     8    6   23 1
     9    7   17 am
    10    7   19 2
    11    8   13 1
    12    8   18 am
    13    8   20 2
    14    9   15 1
    15   10   15 1
    16   11   12 1
    17   11   14 1
    18   12   22 1
    19   13   14 1
    20   13   21 1
    21   14   16 1
    22   15   22 1
    23   17   18 1
    24    1   24 1
    25    2   25 1
    26    3   26 1
    27    4   27 1
    28    9   28 1
    29    9   29 1
    30    9   30 1
    31   10   31 1
    32   10   32 1
    33   10   33 1
    34   11   34 1
    35   11   35 1
    36   12   36 1
    37   12   37 1
    38   13   38 1
    39   14   39 1
    40   15   40 1
    41   16   41 1
    42   16   42 1
    43   17   43 1
    44   18   44 1
    45   21   45 1
@<TRIPOS>MOLECULE
LIGAND
   45    45     0     0     0
SMALL
NO_CHARGES

@<TRIPOS>ATOM
      1 C1         -2.1603   -5.6315    6.3278 C.ar      1 <0>         0.0000
      2 C2         -1.7204   -5.1318    5.1021 C.ar      1 <0>         0.0000
      3 C3         -1.4281   -5.3780    7.4876 C.ar      1 <0>         0.0000
      4 C4          0.1841   -4.1252    6.1960 C.ar      1 <0>         0.0000
      5 C5         -0.5482   -4.3787    5.0361 C.ar      1 <0>         0.0000
      6 C6         -0.2559   -4.6248    7.4217 C.ar      1 <0>         0.0000
      7 C7         -0.0800   -3.8473    3.7299 C.2       1 <0>         0.0000
      8 C8          1.9325   -1.0133    2.6768 C.2       1 <0>         0.0000
      9 C9         -4.0623    0.8550    1.3177 C.3       1 <0>         0.0000
     10 C10        -3.5584   -1.5885    1.6583 C.3       1 <0>         0.0000
     11 C11         0.2195    0.8307    0.9188 C.3       1 <0>         0.0000
     12 C12        -1.0001    1.1700    0.0549 C.3       1 <0>         0.0000
     13 C13         2.3649   -0.5352    1.2935 C.3       1 <0>         0.0000
     14 C14         1.1534   -0.2750    0.3710 C.3       1 <0>         0.0000
     15 C15        -2.9754   -0.2124    1.3599 C.3       1 <0>         0.0000
     16 N1          1.6681    0.0834   -0.9557 N.3       1 <0>         0.0000
     17 N2          0.6851   -2.6985    3.7909 N.am      1 <0>         0.0000
     18 N3          1.1665   -2.1628    2.6216 N.am      1 <0>         0.0000
     19 O1         -0.3732   -4.4442    2.6969 O.2       1 <0>         0.0000
     20 O2          2.2299   -0.4108    3.7066 O.2       1 <0>         0.0000
     21 O3          3.2186   -1.5159    0.7230 O.3       1 <0>         0.0000
     22 S1         -2.0977   -0.2515   -0.2193 S.3       1 <0>         0.0000
     23 Cl1         0.6469   -4.3119    8.8534 Cl        1 <0>         0.0000
     24 H1         -3.0732   -6.2176    6.3789 H         1 <0>         0.0000
     25 H2         -2.2995   -5.3362    4.2052 H         1 <0>         0.0000
     26 H3         -1.7832   -5.7738    8.4356 H         1 <0>         0.0000
     27 H4          1.0979   -3.5368    6.1416 H         1 <0>         0.0000
     28 H5         -4.8019    0.6148    0.5457 H         1 <0>         0.0000
     29 H6         -4.5966    0.9180    2.2722 H         1 <0>         0.0000
     30 H7         -3.6542    1.8453    1.0855 H         1 <0>         0.0000
     31 H8         -4.2902   -1.8663    0.8915 H         1 <0>         0.0000
     32 H9         -4.0769   -1.6012    2.6234 H         1 <0>         0.0000
     33 H10        -2.7856   -2.3656    1.6725 H         1 <0>         0.0000
     34 H11        -0.1531    0.5335    1.9082 H         1 <0>         0.0000
     35 H12         0.7975    1.7493    1.0822 H         1 <0>         0.0000
     36 H13        -0.6573    1.5138   -0.9268 H         1 <0>         0.0000
     37 H14        -1.5832    1.9849    0.4933 H         1 <0>         0.0000
     38 H15         2.9484    0.3859    1.4229 H         1 <0>         0.0000
     39 H16         0.5915   -1.2082    0.2610 H         1 <0>         0.0000
     40 H17        -2.2476    0.0460    2.1366 H         1 <0>         0.0000
     41 H18         0.8845    0.1717   -1.5934 H         1 <0>         0.0000
     42 H19         2.2416   -0.6802   -1.2969 H         1 <0>         0.0000
     43 H20         0.8873   -2.2591    4.6823 H         1 <0>         0.0000
     44 H21         0.9630   -2.6038    1.7309 H         1 <0>         0.0000
     45 H22         2.7041   -2.3378    0.6655 H         1 <0>         0.0000
@<TRIPOS>BOND
     1    1    2 ar
     2    1    3 ar
     3    2    5 ar
     4    3    6 ar
     5    4    5 ar
     6    4    6 ar
     7    5    7 1
     8    6   23 1
     9    7   17 am
    10    7   19 2
    11    8   13 1
    12    8   18 am
    13    8   20 2
    14    9   15 1
    15   10   15 1
    16   11   12 1
    17   11   14 1
    18   12   22 1
    19   13   14 1
    20   13   21 1
    21   14   16 1
    22   15   22 1
    23   17   18 1
    24    1   24 1
    25    2   25 1
    26    3   26 1
    27    4   27 1
    28    9   28 1
    29    9   29 1
    30    9   30 1
    31   10   31 1
    32   10   32 1
    33   10   33 1
    34   11   34 1
    35   11   35 1
    36   12   36 1
    37   12   37 1
    38   13   38 1
    39   14   39 1
    40   15   40 1
    41   16   41 1
    42   16   42 1
    43   17   43 1
    44   18   44 1
    45   21   45 1
@<TRIPOS>MOLECULE
LIGAND
   45    45     0     0     0
SMALL
NO_CHARGES

@<TRIPOS>ATOM
      1 C1          2.4230   -4.2883    8.5214 C.ar      1 <0>         0.0000
      2 C2          2.6907   -3.9683    7.1905 C.ar      1 <0>         0.0000
      3 C3          2.2530   -3.2726    9.4623 C.ar      1 <0>         0.0000
      4 C4          2.6187   -1.6170    7.7412 C.ar      1 <0>         0.0000
      5 C5          2.7886   -2.6327    6.8003 C.ar      1 <0>         0.0000
      6 C6          2.3509   -1.9370    9.0722 C.ar      1 <0>         0.0000
      7 C7          3.0744   -2.2928    5.3823 C.2       1 <0>         0.0000
      8 C8          1.9325   -1.0133    2.6768 C.2       1 <0>         0.0000
      9 C9         -4.1299   -0.4675   -2.0276 C.3       1 <0>         0.0000
     10 C10        -4.2566    1.4118   -0.3565 C.3       1 <0>         0.0000
     11 C11         0.2195    0.8307    0.9188 C.3       1 <0>         0.0000
     12 C12        -1.0001    1.1700    0.0549 C.3       1 <0>         0.0000
     13 C13         2.3649   -0.5352    1.2935 C.3       1 <0>         0.0000
     14 C14         1.1534   -0.2750    0.3710 C.3       1 <0>         0.0000
     15 C15        -3.3416    0.5718   -1.2395 C.3       1 <0>         0.0000
     16 N1          1.6681    0.0834   -0.9557 N.3       1 <0>         0.0000
     17 N2          2.6023   -1.0670    4.9540 N.am      1 <0>         0.0000
     18 N3          2.8469   -0.6810    3.6590 N.am      1 <0>         0.0000
     19 O1          3.7083   -3.0847    4.6892 O.2       1 <0>         0.0000
     20 O2          0.8915   -1.6405    2.8632 O.2       1 <0>         0.0000
     21 O3          3.2186   -1.5159    0.7230 O.3       1 <0>         0.0000
     22 S1         -2.0977   -0.2515   -0.2193 S.3       1 <0>         0.0000
     23 Cl1         2.1407   -0.6842   10.2336 Cl        1 <0>         0.0000
     24 H1          2.3465   -5.3282    8.8249 H         1 <0>         0.0000
     25 H2          2.8213   -4.7686    6.4665 H         1 <0>         0.0000
     26 H3          2.0449   -3.5371   10.4958 H         1 <0>         0.0000
     27 H4          2.6951   -0.5760    7.4338 H         1 <0>         0.0000
     28 H5         -4.6663   -1.1363   -1.3453 H         1 <0>         0.0000
     29 H6         -4.8772    0.0053   -2.6747 H         1 <0>         0.0000
     30 H7         -3.4774   -1.0886   -2.6519 H         1 <0>         0.0000
     31 H8         -4.7949    0.7719    0.3515 H         1 <0>         0.0000
     32 H9         -5.0077    1.9429   -0.9517 H         1 <0>         0.0000
     33 H10        -3.6957    2.1500    0.2280 H         1 <0>         0.0000
     34 H11        -0.1531    0.5335    1.9082 H         1 <0>         0.0000
     35 H12         0.7975    1.7493    1.0822 H         1 <0>         0.0000
     36 H13        -0.6573    1.5138   -0.9268 H         1 <0>         0.0000
     37 H14        -1.5832    1.9849    0.4933 H         1 <0>         0.0000
     38 H15         2.9484    0.3859    1.4229 H         1 <0>         0.0000
     39 H16         0.5915   -1.2082    0.2610 H         1 <0>         0.0000
     40 H17        -2.8138    1.2291   -1.9386 H         1 <0>         0.0000
     41 H18         0.8845    0.1717   -1.5934 H         1 <0>         0.0000
     42 H19         2.2416   -0.6802   -1.2969 H         1 <0>         0.0000
     43 H20         2.0849   -0.4638    5.5841 H         1 <0>         0.0000
     44 H21         3.6858   -0.1599    3.4266 H         1 <0>         0.0000
     45 H22         2.7041   -2.3378    0.6655 H         1 <0>         0.0000
@<TRIPOS>BOND
     1    1    2 ar
     2    1    3 ar
     3    2    5 ar
     4    3    6 ar
     5    4    5 ar
     6    4    6 ar
     7    5    7 1
     8    6   23 1
     9    7   17 am
    10    7   19 2
    11    8   13 1
    12    8   18 am
    13    8   20 2
    14    9   15 1
    15   10   15 1
    16   11   12 1
    17   11   14 1
    18   12   22 1
    19   13   14 1
    20   13   21 1
    21   14   16 1
    22   15   22 1
    23   17   18 1
    24    1   24 1
    25    2   25 1
    26    3   26 1
    27    4   27 1
    28    9   28 1
    29    9   29 1
    30    9   30 1
    31   10   31 1
    32   10   32 1
    33   10   33 1
    34   11   34 1
    35   11   35 1
    36   12   36 1
    37   12   37 1
    38   13   38 1
    39   14   39 1
    40   15   40 1
    41   16   41 1
    42   16   42 1
    43   17   43 1
    44   18   44 1
    45   21   45 1
@<TRIPOS>MOLECULE
LIGAND
   45    45     0     0     0
SMALL
NO_CHARGES

@<TRIPOS>ATOM
      1 C1          2.3084   -2.0825    9.0344 C.ar      1 <0>         0.0000
      2 C2          2.5351   -1.6185    7.7387 C.ar      1 <0>         0.0000
      3 C3          1.1971   -1.6371    9.7503 C.ar      1 <0>         0.0000
      4 C4          0.5395   -0.2636    7.8747 C.ar      1 <0>         0.0000
      5 C5          1.6507   -0.7090    7.1588 C.ar      1 <0>         0.0000
      6 C6          0.3127   -0.7276    9.1704 C.ar      1 <0>         0.0000
      7 C7          1.8934   -0.2148    5.7787 C.2       1 <0>         0.0000
      8 C8          1.9325   -1.0133    2.6768 C.2       1 <0>         0.0000
      9 C9         -1.3566    4.2423   -1.1718 C.3       1 <0>         0.0000
     10 C10        -1.3823    5.0762    1.2040 C.3       1 <0>         0.0000
     11 C11         0.2195    0.8307    0.9188 C.3       1 <0>         0.0000
     12 C12        -1.0001    1.1700    0.0549 C.3       1 <0>         0.0000
     13 C13         2.3649   -0.5352    1.2935 C.3       1 <0>         0.0000
     14 C14         1.1534   -0.2750    0.3710 C.3       1 <0>         0.0000
     15 C15        -1.0699    3.9009    0.2855 C.3       1 <0>         0.0000
     16 N1          1.6681    0.0834   -0.9557 N.3       1 <0>         0.0000
     17 N2          2.6023   -1.0670    4.9540 N.am      1 <0>         0.0000
     18 N3          2.8469   -0.6810    3.6590 N.am      1 <0>         0.0000
     19 O1          1.4534    0.8829    5.4461 O.2       1 <0>         0.0000
     20 O2          0.8915   -1.6405    2.8632 O.2       1 <0>         0.0000
     21 O3          3.2186   -1.5159    0.7230 O.3       1 <0>         0.0000
     22 S1         -2.0492    2.4644    0.7791 S.3       1 <0>         0.0000
     23 Cl1        -1.0586   -0.1788   10.0541 Cl        1 <0>         0.0000
     24 H1          2.9969   -2.7909    9.4856 H         1 <0>         0.0000
     25 H2          3.4046   -1.9729    7.1910 H         1 <0>         0.0000
     26 H3          1.0333   -2.0074   10.7590 H         1 <0>         0.0000
     27 H4         -0.1491    0.4455    7.4196 H         1 <0>         0.0000
     28 H5         -2.4105    4.5137   -1.2989 H         1 <0>         0.0000
     29 H6         -0.7576    5.0967   -1.5064 H         1 <0>         0.0000
     30 H7         -1.1520    3.3963   -1.8378 H         1 <0>         0.0000
     31 H8         -2.4367    5.3604    1.1134 H         1 <0>         0.0000
     32 H9         -0.7841    5.9563    0.9431 H         1 <0>         0.0000
     33 H10        -1.1964    4.8333    2.2564 H         1 <0>         0.0000
     34 H11        -0.1531    0.5335    1.9082 H         1 <0>         0.0000
     35 H12         0.7975    1.7493    1.0822 H         1 <0>         0.0000
     36 H13        -1.6176    0.2727   -0.0585 H         1 <0>         0.0000
     37 H14        -0.7009    1.4813   -0.9501 H         1 <0>         0.0000
     38 H15         2.9484    0.3859    1.4229 H         1 <0>         0.0000
     39 H16         0.5915   -1.2082    0.2610 H         1 <0>         0.0000
     40 H17        -0.0132    3.6330    0.3910 H         1 <0>         0.0000
     41 H18         0.8845    0.1717   -1.5934 H         1 <0>         0.0000
     42 H19         2.2416   -0.6802   -1.2969 H         1 <0>         0.0000
     43 H20         2.9356   -1.9607    5.2985 H         1 <0>         0.0000
     44 H21         3.6858   -0.1599    3.4266 H         1 <0>         0.0000
     45 H22         2.7041   -2.3378    0.6655 H         1 <0>         0.0000
@<TRIPOS>BOND
     1    1    2 ar
     2    1    3 ar
     3    2    5 ar
     4    3    6 ar
     5    4    5 ar
     6    4    6 ar
     7    5    7 1
     8    6   23 1
     9    7   17 am
    10    7   19 2
    11    8   13 1
    12    8   18 am
    13    8   20 2
    14    9   15 1
    15   10   15 1
    16   11   12 1
    17   11   14 1
    18   12   22 1
    19   13   14 1
    20   13   21 1
    21   14   16 1
    22   15   22 1
    23   17   18 1
    24    1   24 1
    25    2   25 1
    26    3   26 1
    27    4   27 1
    28    9   28 1
    29    9   29 1
    30    9   30 1
    31   10   31 1
    32   10   32 1
    33   10   33 1
    34   11   34 1
    35   11   35 1
    36   12   36 1
    37   12   37 1
    38   13   38 1
    39   14   39 1
    40   15   40 1
    41   16   41 1
    42   16   42 1
    43   17   43 1
    44   18   44 1
    45   21   45 1
@<TRIPOS>MOLECULE
LIGAND
   45    45     0     0     0
SMALL
NO_CHARGES

@<TRIPOS>ATOM
      1 C1         -0.8688   -1.7203    8.2676 C.ar      1 <0>         0.0000
      2 C2         -0.4721   -1.3756    6.9756 C.ar      1 <0>         0.0000
      3 C3         -1.6746   -0.8524    9.0047 C.ar      1 <0>         0.0000
      4 C4         -1.6869    0.7048    7.1576 C.ar      1 <0>         0.0000
      5 C5         -0.8811   -0.1631    6.4206 C.ar      1 <0>         0.0000
      6 C6         -2.0836    0.3601    8.4497 C.ar      1 <0>         0.0000
      7 C7         -0.4576    0.2036    5.0443 C.2       1 <0>         0.0000
      8 C8          1.9325   -1.0133    2.6768 C.2       1 <0>         0.0000
      9 C9          2.7221    4.6042   -2.2190 C.3       1 <0>         0.0000
     10 C10         2.5092    5.3544    0.1752 C.3       1 <0>         0.0000
     11 C11         1.5761    0.1765   -1.0474 C.3       1 <0>         0.0000
     12 C12         2.3784    1.4800   -1.1273 C.3       1 <0>         0.0000
     13 C13         2.3649   -0.5352    1.2935 C.3       1 <0>         0.0000
     14 C14         1.1534   -0.2750    0.3710 C.3       1 <0>         0.0000
     15 C15         2.7418    4.1721   -0.7577 C.3       1 <0>         0.0000
     16 N1          0.3597   -1.5080    0.3138 N.3       1 <0>         0.0000
     17 N2          0.7320   -0.3536    4.6161 N.am      1 <0>         0.0000
     18 N3          1.1743   -0.0714    3.3469 N.am      1 <0>         0.0000
     19 O1         -1.1696    0.9461    4.3728 O.2       1 <0>         0.0000
     20 O2          2.2555   -2.1109    3.1269 O.2       1 <0>         0.0000
     21 O3          3.2186   -1.5159    0.7230 O.3       1 <0>         0.0000
     22 S1          1.4741    2.9151   -0.4766 S.3       1 <0>         0.0000
     23 Cl1        -3.0783    1.4303    9.3596 Cl        1 <0>         0.0000
     24 H1         -0.5505   -2.6646    8.6994 H         1 <0>         0.0000
     25 H2          0.1559   -2.0601    6.4111 H         1 <0>         0.0000
     26 H3         -1.9758   -1.1345   10.0103 H         1 <0>         0.0000
     27 H4         -2.0049    1.6499    6.7219 H         1 <0>         0.0000
     28 H5          1.7574    5.0604   -2.4680 H         1 <0>         0.0000
     29 H6          3.4979    5.3502   -2.4247 H         1 <0>         0.0000
     30 H7          2.8703    3.7569   -2.8981 H         1 <0>         0.0000
     31 H8          1.5412    5.8221   -0.0370 H         1 <0>         0.0000
     32 H9          3.2784    6.1235    0.0438 H         1 <0>         0.0000
     33 H10         2.5035    5.0496    1.2280 H         1 <0>         0.0000
     34 H11         2.1843   -0.6108   -1.5125 H         1 <0>         0.0000
     35 H12         0.6847    0.2765   -1.6798 H         1 <0>         0.0000
     36 H13         2.6151    1.6893   -2.1758 H         1 <0>         0.0000
     37 H14         3.3304    1.3937   -0.5957 H         1 <0>         0.0000
     38 H15         2.9484    0.3859    1.4229 H         1 <0>         0.0000
     39 H16         0.5249    0.4957    0.8291 H         1 <0>         0.0000
     40 H17         3.7127    3.7195   -0.5296 H         1 <0>         0.0000
     41 H18        -0.4842   -1.3249   -0.2178 H         1 <0>         0.0000
     42 H19         0.0690   -1.7492    1.2550 H         1 <0>         0.0000
     43 H20         1.2684   -0.9594    5.2274 H         1 <0>         0.0000
     44 H21         0.9480    0.8148    2.9078 H         1 <0>         0.0000
     45 H22         2.7041   -2.3378    0.6655 H         1 <0>         0.0000
@<TRIPOS>BOND
     1    1    2 ar
     2    1    3 ar
     3    2    5 ar
     4    3    6 ar
     5    4    5 ar
     6    4    6 ar
     7    5    7 1
     8    6   23 1
     9    7   17 am
    10    7   19 2
    11    8   13 1
    12    8   18 am
    13    8   20 2
    14    9   15 1
    15   10   15 1
    16   11   12 1
    17   11   14 1
    18   12   22 1
    19   13   14 1
    20   13   21 1
    21   14   16 1
    22   15   22 1
    23   17   18 1
    24    1   24 1
    25    2   25 1
    26    3   26 1
    27    4   27 1
    28    9   28 1
    29    9   29 1
    30    9   30 1
    31   10   31 1
    32   10   32 1
    33   10   33 1
    34   11   34 1
    35   11   35 1
    36   12   36 1
    37   12   37 1
    38   13   38 1
    39   14   39 1
    40   15   40 1
    41   16   41 1
    42   16   42 1
    43   17   43 1
    44   18   44 1
    45   21   45 1
@<TRIPOS>MOLECULE
LIGAND
   45    45     0     0     0
SMALL
NO_CHARGES

@<TRIPOS>ATOM
      1 C1          1.2491   -0.2643    9.4993 C.ar      1 <0>         0.0000
      2 C2          1.4776    0.1988    8.2036 C.ar      1 <0>         0.0000
      3 C3          1.1939   -1.6354    9.7503 C.ar      1 <0>         0.0000
      4 C4          1.5955   -2.0801    7.4098 C.ar      1 <0>         0.0000
      5 C5          1.6507   -0.7090    7.1588 C.ar      1 <0>         0.0000
      6 C6          1.3670   -2.5432    8.7056 C.ar      1 <0>         0.0000
      7 C7          1.8934   -0.2148    5.7787 C.2       1 <0>         0.0000
      8 C8          1.9325   -1.0133    2.6768 C.2       1 <0>         0.0000
      9 C9         -1.3566    4.2423   -1.1718 C.3       1 <0>         0.0000
     10 C10        -1.3823    5.0762    1.2040 C.3       1 <0>         0.0000
     11 C11         0.2195    0.8307    0.9188 C.3       1 <0>         0.0000
     12 C12        -1.0001    1.1700    0.0549 C.3       1 <0>         0.0000
     13 C13         2.3649   -0.5352    1.2935 C.3       1 <0>         0.0000
     14 C14         1.1534   -0.2750    0.3710 C.3       1 <0>         0.0000
     15 C15        -1.0699    3.9009    0.2855 C.3       1 <0>         0.0000
     16 N1          1.6681    0.0834   -0.9557 N.3       1 <0>         0.0000
     17 N2          2.6023   -1.0670    4.9540 N.am      1 <0>         0.0000
     18 N3          2.8469   -0.6810    3.6590 N.am      1 <0>         0.0000
     19 O1          1.4534    0.8829    5.4461 O.2       1 <0>         0.0000
     20 O2          0.8915   -1.6405    2.8632 O.2       1 <0>         0.0000
     21 O3          3.2186   -1.5159    0.7230 O.3       1 <0>         0.0000
     22 S1         -2.0492    2.4644    0.7791 S.3       1 <0>         0.0000
     23 Cl1         1.2993   -4.2348    9.0161 Cl        1 <0>         0.0000
     24 H1          1.1146    0.4426   10.3126 H         1 <0>         0.0000
     25 H2          1.5183    1.2695    8.0204 H         1 <0>         0.0000
     26 H3          1.0151   -1.9815   10.7651 H         1 <0>         0.0000
     27 H4          1.7315   -2.7860    6.5930 H         1 <0>         0.0000
     28 H5         -2.4105    4.5137   -1.2989 H         1 <0>         0.0000
     29 H6         -0.7576    5.0967   -1.5064 H         1 <0>         0.0000
     30 H7         -1.1520    3.3963   -1.8378 H         1 <0>         0.0000
     31 H8         -2.4367    5.3604    1.1134 H         1 <0>         0.0000
     32 H9         -0.7841    5.9563    0.9431 H         1 <0>         0.0000
     33 H10        -1.1964    4.8333    2.2564 H         1 <0>         0.0000
     34 H11        -0.1531    0.5335    1.9082 H         1 <0>         0.0000
     35 H12         0.7975    1.7493    1.0822 H         1 <0>         0.0000
     36 H13        -1.6176    0.2727   -0.0585 H         1 <0>         0.0000
     37 H14        -0.7009    1.4813   -0.9501 H         1 <0>         0.0000
     38 H15         2.9484    0.3859    1.4229 H         1 <0>         0.0000
     39 H16         0.5915   -1.2082    0.2610 H         1 <0>         0.0000
     40 H17        -0.0132    3.6330    0.3910 H         1 <0>         0.0000
     41 H18         0.8845    0.1717   -1.5934 H         1 <0>         0.0000
     42 H19         2.2416   -0.6802   -1.2969 H         1 <0>         0.0000
     43 H20         2.9356   -1.9607    5.2985 H         1 <0>         0.0000
     44 H21         3.6858   -0.1599    3.4266 H         1 <0>         0.0000
     45 H22         2.7041   -2.3378    0.6655 H         1 <0>         0.0000
@<TRIPOS>BOND
     1    1    2 ar
     2    1    3 ar
     3    2    5 ar
     4    3    6 ar
     5    4    5 ar
     6    4    6 ar
     7    5    7 1
     8    6   23 1
     9    7   17 am
    10    7   19 2
    11    8   13 1
    12    8   18 am
    13    8   20 2
    14    9   15 1
    15   10   15 1
    16   11   12 1
    17   11   14 1
    18   12   22 1
    19   13   14 1
    20   13   21 1
    21   14   16 1
    22   15   22 1
    23   17   18 1
    24    1   24 1
    25    2   25 1
    26    3   26 1
    27    4   27 1
    28    9   28 1
    29    9   29 1
    30    9   30 1
    31   10   31 1
    32   10   32 1
    33   10   33 1
    34   11   34 1
    35   11   35 1
    36   12   36 1
    37   12   37 1
    38   13   38 1
    39   14   39 1
    40   15   40 1
    41   16   41 1
    42   16   42 1
    43   17   43 1
    44   18   44 1
    45   21   45 1
@<TRIPOS>MOLECULE
LIGAND
   45    45     0     0     0
SMALL
NO_CHARGES

@<TRIPOS>ATOM
      1 C1          0.2436   -1.5853    8.6879 C.ar      1 <0>         0.0000
      2 C2          0.6848   -1.3243    7.3907 C.ar      1 <0>         0.0000
      3 C3          1.0636   -1.2882    9.7766 C.ar      1 <0>         0.0000
      4 C4          2.7661   -0.4692    8.2707 C.ar      1 <0>         0.0000
      5 C5          1.9460   -0.7663    7.1821 C.ar      1 <0>         0.0000
      6 C6          2.3248   -0.7302    9.5679 C.ar      1 <0>         0.0000
      7 C7          2.4155   -0.4891    5.7998 C.2       1 <0>         0.0000
      8 C8          1.9325   -1.0133    2.6768 C.2       1 <0>         0.0000
      9 C9         -4.5752    3.1779    0.0331 C.3       1 <0>         0.0000
     10 C10        -2.7668    3.3107   -1.7140 C.3       1 <0>         0.0000
     11 C11         0.2195    0.8307    0.9188 C.3       1 <0>         0.0000
     12 C12        -1.0001    1.1700    0.0549 C.3       1 <0>         0.0000
     13 C13         2.3649   -0.5352    1.2935 C.3       1 <0>         0.0000
     14 C14         1.1534   -0.2750    0.3710 C.3       1 <0>         0.0000
     15 C15        -3.3066    2.5373   -0.5169 C.3       1 <0>         0.0000
     16 N1          1.6681    0.0834   -0.9557 N.3       1 <0>         0.0000
     17 N2          1.4238   -0.2520    4.8674 N.am      1 <0>         0.0000
     18 N3          1.7877    0.0290    3.5734 N.am      1 <0>         0.0000
     19 O1          3.6213   -0.4699    5.5658 O.2       1 <0>         0.0000
     20 O2          1.7602   -2.2018    2.9407 O.2       1 <0>         0.0000
     21 O3          3.2186   -1.5159    0.7230 O.3       1 <0>         0.0000
     22 S1         -2.0492    2.4644    0.7791 S.3       1 <0>         0.0000
     23 Cl1         3.3359   -0.3635   10.9117 Cl        1 <0>         0.0000
     24 H1         -0.7386   -2.0195    8.8502 H         1 <0>         0.0000
     25 H2          0.0368   -1.5602    6.5505 H         1 <0>         0.0000
     26 H3          0.7063   -1.4972   10.7816 H         1 <0>         0.0000
     27 H4          3.7493   -0.0335    8.1049 H         1 <0>         0.0000
     28 H5         -4.3764    4.2092    0.3452 H         1 <0>         0.0000
     29 H6         -5.3650    3.2137   -0.7256 H         1 <0>         0.0000
     30 H7         -4.9604    2.6385    0.9059 H         1 <0>         0.0000
     31 H8         -2.5401    4.3441   -1.4288 H         1 <0>         0.0000
     32 H9         -3.5004    3.3505   -2.5268 H         1 <0>         0.0000
     33 H10        -1.8438    2.8672   -2.1048 H         1 <0>         0.0000
     34 H11        -0.1531    0.5335    1.9082 H         1 <0>         0.0000
     35 H12         0.7975    1.7493    1.0822 H         1 <0>         0.0000
     36 H13        -1.6176    0.2727   -0.0585 H         1 <0>         0.0000
     37 H14        -0.7009    1.4813   -0.9501 H         1 <0>         0.0000
     38 H15         2.9484    0.3859    1.4229 H         1 <0>         0.0000
     39 H16         0.5915   -1.2082    0.2610 H         1 <0>         0.0000
     40 H17        -3.5264    1.5088   -0.8227 H         1 <0>         0.0000
     41 H18         0.8845    0.1717   -1.5934 H         1 <0>         0.0000
     42 H19         2.2416   -0.6802   -1.2969 H         1 <0>         0.0000
     43 H20         0.4458   -0.2847    5.1337 H         1 <0>         0.0000
     44 H21         1.9478    0.9869    3.2798 H         1 <0>         0.0000
     45 H22         2.7041   -2.3378    0.6655 H         1 <0>         0.0000
@<TRIPOS>BOND
     1    1    2 ar
     2    1    3 ar
     3    2    5 ar
     4    3    6 ar
     5    4    5 ar
     6    4    6 ar
     7    5    7 1
     8    6   23 1
     9    7   17 am
    10    7   19 2
    11    8   13 1
    12    8   18 am
    13    8   20 2
    14    9   15 1
    15   10   15 1
    16   11   12 1
    17   11   14 1
    18   12   22 1
    19   13   14 1
    20   13   21 1
    21   14   16 1
    22   15   22 1
    23   17   18 1
    24    1   24 1
    25    2   25 1
    26    3   26 1
    27    4   27 1
    28    9   28 1
    29    9   29 1
    30    9   30 1
    31   10   31 1
    32   10   32 1
    33   10   33 1
    34   11   34 1
    35   11   35 1
    36   12   36 1
    37   12   37 1
    38   13   38 1
    39   14   39 1
    40   15   40 1
    41   16   41 1
    42   16   42 1
    43   17   43 1
    44   18   44 1
    45   21   45 1
@<TRIPOS>MOLECULE
LIGAND
   45    45     0     0     0
SMALL
NO_CHARGES

@<TRIPOS>ATOM
      1 C1         -2.0859    0.3620    8.4478 C.ar      1 <0>         0.0000
      2 C2         -1.6873    0.7057    7.1561 C.ar      1 <0>         0.0000
      3 C3         -1.6782   -0.8505    9.0041 C.ar      1 <0>         0.0000
      4 C4         -0.4734   -1.3755    6.9768 C.ar      1 <0>         0.0000
      5 C5         -0.8811   -0.1631    6.4206 C.ar      1 <0>         0.0000
      6 C6         -0.8720   -1.7192    8.2686 C.ar      1 <0>         0.0000
      7 C7         -0.4576    0.2036    5.0443 C.2       1 <0>         0.0000
      8 C8          1.9325   -1.0133    2.6768 C.2       1 <0>         0.0000
      9 C9          2.1016    5.5550   -0.7655 C.3       1 <0>         0.0000
     10 C10         3.8195    4.0640    0.3143 C.3       1 <0>         0.0000
     11 C11         1.5761    0.1765   -1.0474 C.3       1 <0>         0.0000
     12 C12         2.3784    1.4800   -1.1273 C.3       1 <0>         0.0000
     13 C13         2.3649   -0.5352    1.2935 C.3       1 <0>         0.0000
     14 C14         1.1534   -0.2750    0.3710 C.3       1 <0>         0.0000
     15 C15         2.7418    4.1721   -0.7577 C.3       1 <0>         0.0000
     16 N1          0.3597   -1.5080    0.3138 N.3       1 <0>         0.0000
     17 N2          0.7320   -0.3536    4.6161 N.am      1 <0>         0.0000
     18 N3          1.1743   -0.0714    3.3469 N.am      1 <0>         0.0000
     19 O1         -1.1696    0.9461    4.3728 O.2       1 <0>         0.0000
     20 O2          2.2555   -2.1109    3.1269 O.2       1 <0>         0.0000
     21 O3          3.2186   -1.5159    0.7230 O.3       1 <0>         0.0000
     22 S1          1.4741    2.9151   -0.4766 S.3       1 <0>         0.0000
     23 Cl1        -0.3688   -3.2149    8.9559 Cl        1 <0>         0.0000
     24 H1         -2.7133    1.0387    9.0204 H         1 <0>         0.0000
     25 H2         -2.0115    1.6532    6.7333 H         1 <0>         0.0000
     26 H3         -1.9966   -1.1048   10.0118 H         1 <0>         0.0000
     27 H4          0.1559   -2.0511    6.4010 H         1 <0>         0.0000
     28 H5          1.6476    5.7697    0.2083 H         1 <0>         0.0000
     29 H6          2.8444    6.3372   -0.9581 H         1 <0>         0.0000
     30 H7          1.3123    5.6360   -1.5215 H         1 <0>         0.0000
     31 H8          3.3919    4.2558    1.3048 H         1 <0>         0.0000
     32 H9          4.6156    4.7998    0.1551 H         1 <0>         0.0000
     33 H10         4.2729    3.0665    0.3392 H         1 <0>         0.0000
     34 H11         2.1843   -0.6108   -1.5125 H         1 <0>         0.0000
     35 H12         0.6847    0.2765   -1.6798 H         1 <0>         0.0000
     36 H13         2.6151    1.6893   -2.1758 H         1 <0>         0.0000
     37 H14         3.3304    1.3937   -0.5957 H         1 <0>         0.0000
     38 H15         2.9484    0.3859    1.4229 H         1 <0>         0.0000
     39 H16         0.5249    0.4957    0.8291 H         1 <0>         0.0000
     40 H17         3.1890    3.9773   -1.7383 H         1 <0>         0.0000
     41 H18        -0.4842   -1.3249   -0.2178 H         1 <0>         0.0000
     42 H19         0.0690   -1.7492    1.2550 H         1 <0>         0.0000
     43 H20         1.2684   -0.9594    5.2274 H         1 <0>         0.0000
     44 H21         0.9480    0.8148    2.9078 H         1 <0>         0.0000
     45 H22         2.7041   -2.3378    0.6655 H         1 <0>         0.0000
@<TRIPOS>BOND
     1    1    2 ar
     2    1    3 ar
     3    2    5 ar
     4    3    6 ar
     5    4    5 ar
     6    4    6 ar
     7    5    7 1
     8    6   23 1
     9    7   17 am
    10    7   19 2
    11    8   13 1
    12    8   18 am
    13    8   20 2
    14    9   15 1
    15   10   15 1
    16   11   12 1
    17   11   14 1
    18   12   22 1
    19   13   14 1
    20   13   21 1
    21   14   16 1
    22   15   22 1
    23   17   18 1
    24    1   24 1
    25    2   25 1
    26    3   26 1
    27    4   27 1
    28    9   28 1
    29    9   29 1
    30    9   30 1
    31   10   31 1
    32   10   32 1
    33   10   33 1
    34   11   34 1
    35   11   35 1
    36   12   36 1
    37   12   37 1
    38   13   38 1
    39   14   39 1
    40   15   40 1
    41   16   41 1
    42   16   42 1
    43   17   43 1
    44   18   44 1
    45   21   45 1
@<TRIPOS>MOLECULE
LIGAND
   45    45     0     0     0
SMALL
NO_CHARGES

@<TRIPOS>ATOM
      1 C1          0.2838   -0.5121    8.9168 C.ar      1 <0>         0.0000
      2 C2          0.7255   -0.2519    7.6195 C.ar      1 <0>         0.0000
      3 C3          1.0627   -1.2866    9.7766 C.ar      1 <0>         0.0000
      4 C4          2.7249   -1.5408    8.0419 C.ar      1 <0>         0.0000
      5 C5          1.9460   -0.7663    7.1821 C.ar      1 <0>         0.0000
      6 C6          2.2832   -1.8009    9.3391 C.ar      1 <0>         0.0000
      7 C7          2.4155   -0.4891    5.7998 C.2       1 <0>         0.0000
      8 C8          1.9325   -1.0133    2.6768 C.2       1 <0>         0.0000
      9 C9         -4.5752    3.1779    0.0331 C.3       1 <0>         0.0000
     10 C10        -2.7668    3.3107   -1.7140 C.3       1 <0>         0.0000
     11 C11         0.2195    0.8307    0.9188 C.3       1 <0>         0.0000
     12 C12        -1.0001    1.1700    0.0549 C.3       1 <0>         0.0000
     13 C13         2.3649   -0.5352    1.2935 C.3       1 <0>         0.0000
     14 C14         1.1534   -0.2750    0.3710 C.3       1 <0>         0.0000
     15 C15        -3.3066    2.5373   -0.5169 C.3       1 <0>         0.0000
     16 N1          1.6681    0.0834   -0.9557 N.3       1 <0>         0.0000
     17 N2          1.4238   -0.2520    4.8674 N.am      1 <0>         0.0000
     18 N3          1.7877    0.0290    3.5734 N.am      1 <0>         0.0000
     19 O1          3.6213   -0.4699    5.5658 O.2       1 <0>         0.0000
     20 O2          1.7602   -2.2018    2.9407 O.2       1 <0>         0.0000
     21 O3          3.2186   -1.5159    0.7230 O.3       1 <0>         0.0000
     22 S1         -2.0492    2.4644    0.7791 S.3       1 <0>         0.0000
     23 Cl1         3.2440   -2.7561   10.4008 Cl        1 <0>         0.0000
     24 H1         -0.6664   -0.1113    9.2573 H         1 <0>         0.0000
     25 H2          0.1097    0.3528    6.9588 H         1 <0>         0.0000
     26 H3          0.7056   -1.4810   10.7846 H         1 <0>         0.0000
     27 H4          3.6769   -1.9403    7.6980 H         1 <0>         0.0000
     28 H5         -4.3764    4.2092    0.3452 H         1 <0>         0.0000
     29 H6         -5.3650    3.2137   -0.7256 H         1 <0>         0.0000
     30 H7         -4.9604    2.6385    0.9059 H         1 <0>         0.0000
     31 H8         -2.5401    4.3441   -1.4288 H         1 <0>         0.0000
     32 H9         -3.5004    3.3505   -2.5268 H         1 <0>         0.0000
     33 H10        -1.8438    2.8672   -2.1048 H         1 <0>         0.0000
     34 H11        -0.1531    0.5335    1.9082 H         1 <0>         0.0000
     35 H12         0.7975    1.7493    1.0822 H         1 <0>         0.0000
     36 H13        -1.6176    0.2727   -0.0585 H         1 <0>         0.0000
     37 H14        -0.7009    1.4813   -0.9501 H         1 <0>         0.0000
     38 H15         2.9484    0.3859    1.4229 H         1 <0>         0.0000
     39 H16         0.5915   -1.2082    0.2610 H         1 <0>         0.0000
     40 H17        -3.5264    1.5088   -0.8227 H         1 <0>         0.0000
     41 H18         0.8845    0.1717   -1.5934 H         1 <0>         0.0000
     42 H19         2.2416   -0.6802   -1.2969 H         1 <0>         0.0000
     43 H20         0.4458   -0.2847    5.1337 H         1 <0>         0.0000
     44 H21         1.9478    0.9869    3.2798 H         1 <0>         0.0000
     45 H22         2.7041   -2.3378    0.6655 H         1 <0>         0.0000
@<TRIPOS>BOND
     1    1    2 ar
     2    1    3 ar
     3    2    5 ar
     4    3    6 ar
     5    4    5 ar
     6    4    6 ar
     7    5    7 1
     8    6   23 1
     9    7   17 am
    10    7   19 2
    11    8   13 1
    12    8   18 am
    13    8   20 2
    14    9   15 1
    15   10   15 1
    16   11   12 1
    17   11   14 1
    18   12   22 1
    19   13   14 1
    20   13   21 1
    21   14   16 1
    22   15   22 1
    23   17   18 1
    24    1   24 1
    25    2   25 1
    26    3   26 1
    27    4   27 1
    28    9   28 1
    29    9   29 1
    30    9   30 1
    31   10   31 1
    32   10   32 1
    33   10   33 1
    34   11   34 1
    35   11   35 1
    36   12   36 1
    37   12   37 1
    38   13   38 1
    39   14   39 1
    40   15   40 1
    41   16   41 1
    42   16   42 1
    43   17   43 1
    44   18   44 1
    45   21   45 1
@<TRIPOS>MOLECULE
LIGAND
   45    45     0     0     0
SMALL
NO_CHARGES

@<TRIPOS>ATOM
      1 C1         -0.4443   -1.6789    8.4406 C.ar      1 <0>         0.0000
      2 C2          0.0752   -1.3786    7.1814 C.ar      1 <0>         0.0000
      3 C3         -0.0644   -0.9236    9.5500 C.ar      1 <0>         0.0000
      4 C4          1.3546    0.4323    8.1411 C.ar      1 <0>         0.0000
      5 C5          0.9746   -0.3231    7.0316 C.ar      1 <0>         0.0000
      6 C6          0.8350    0.1320    9.4003 C.ar      1 <0>         0.0000
      7 C7          1.5280   -0.0043    5.6900 C.2       1 <0>         0.0000
      8 C8          1.9325   -1.0133    2.6768 C.2       1 <0>         0.0000
      9 C9          2.1016    5.5550   -0.7655 C.3       1 <0>         0.0000
     10 C10         3.8195    4.0640    0.3143 C.3       1 <0>         0.0000
     11 C11         1.5761    0.1765   -1.0474 C.3       1 <0>         0.0000
     12 C12         2.3784    1.4800   -1.1273 C.3       1 <0>         0.0000
     13 C13         2.3649   -0.5352    1.2935 C.3       1 <0>         0.0000
     14 C14         1.1534   -0.2750    0.3710 C.3       1 <0>         0.0000
     15 C15         2.7418    4.1721   -0.7577 C.3       1 <0>         0.0000
     16 N1          0.3597   -1.5080    0.3138 N.3       1 <0>         0.0000
     17 N2          0.7320   -0.3536    4.6161 N.am      1 <0>         0.0000
     18 N3          1.1743   -0.0714    3.3469 N.am      1 <0>         0.0000
     19 O1          2.6215    0.5492    5.6056 O.2       1 <0>         0.0000
     20 O2          2.2555   -2.1109    3.1269 O.2       1 <0>         0.0000
     21 O3          3.2186   -1.5159    0.7230 O.3       1 <0>         0.0000
     22 S1          1.4741    2.9151   -0.4766 S.3       1 <0>         0.0000
     23 Cl1         1.3030    1.0639   10.7696 Cl        1 <0>         0.0000
     24 H1         -1.1448   -2.5006    8.5569 H         1 <0>         0.0000
     25 H2         -0.2283   -1.9745    6.3244 H         1 <0>         0.0000
     26 H3         -0.4775   -1.1693   10.5250 H         1 <0>         0.0000
     27 H4          2.0560    1.2555    8.0212 H         1 <0>         0.0000
     28 H5          1.6476    5.7697    0.2083 H         1 <0>         0.0000
     29 H6          2.8444    6.3372   -0.9581 H         1 <0>         0.0000
     30 H7          1.3123    5.6360   -1.5215 H         1 <0>         0.0000
     31 H8          3.3919    4.2558    1.3048 H         1 <0>         0.0000
     32 H9          4.6156    4.7998    0.1551 H         1 <0>         0.0000
     33 H10         4.2729    3.0665    0.3392 H         1 <0>         0.0000
     34 H11         2.1843   -0.6108   -1.5125 H         1 <0>         0.0000
     35 H12         0.6847    0.2765   -1.6798 H         1 <0>         0.0000
     36 H13         2.6151    1.6893   -2.1758 H         1 <0>         0.0000
     37 H14         3.3304    1.3937   -0.5957 H         1 <0>         0.0000
     38 H15         2.9484    0.3859    1.4229 H         1 <0>         0.0000
     39 H16         0.5249    0.4957    0.8291 H         1 <0>         0.0000
     40 H17         3.1890    3.9773   -1.7383 H         1 <0>         0.0000
     41 H18        -0.4842   -1.3249   -0.2178 H         1 <0>         0.0000
     42 H19         0.0690   -1.7492    1.2550 H         1 <0>         0.0000
     43 H20        -0.1619   -0.8097    4.7623 H         1 <0>         0.0000
     44 H21         0.9480    0.8148    2.9078 H         1 <0>         0.0000
     45 H22         2.7041   -2.3378    0.6655 H         1 <0>         0.0000
@<TRIPOS>BOND
     1    1    2 ar
     2    1    3 ar
     3    2    5 ar
     4    3    6 ar
     5    4    5 ar
     6    4    6 ar
     7    5    7 1
     8    6   23 1
     9    7   17 am
    10    7   19 2
    11    8   13 1
    12    8   18 am
    13    8   20 2
    14    9   15 1
    15   10   15 1
    16   11   12 1
    17   11   14 1
    18   12   22 1
    19   13   14 1
    20   13   21 1
    21   14   16 1
    22   15   22 1
    23   17   18 1
    24    1   24 1
    25    2   25 1
    26    3   26 1
    27    4   27 1
    28    9   28 1
    29    9   29 1
    30    9   30 1
    31   10   31 1
    32   10   32 1
    33   10   33 1
    34   11   34 1
    35   11   35 1
    36   12   36 1
    37   12   37 1
    38   13   38 1
    39   14   39 1
    40   15   40 1
    41   16   41 1
    42   16   42 1
    43   17   43 1
    44   18   44 1
    45   21   45 1
@<TRIPOS>MOLECULE
LIGAND
   45    45     0     0     0
SMALL
NO_CHARGES

@<TRIPOS>ATOM
      1 C1          1.3200   -1.9638    8.8676 C.ar      1 <0>         0.0000
      2 C2          1.6218   -1.5213    7.5797 C.ar      1 <0>         0.0000
      3 C3          2.1606   -1.6378    9.9320 C.ar      1 <0>         0.0000
      4 C4          3.6050   -0.4271    8.4204 C.ar      1 <0>         0.0000
      5 C5          2.7643   -0.7530    7.3561 C.ar      1 <0>         0.0000
      6 C6          3.3031   -0.8695    9.7084 C.ar      1 <0>         0.0000
      7 C7          3.0854   -0.2826    5.9837 C.2       1 <0>         0.0000
      8 C8          1.9325   -1.0133    2.6768 C.2       1 <0>         0.0000
      9 C9         -4.1299   -0.4675   -2.0276 C.3       1 <0>         0.0000
     10 C10        -4.2566    1.4118   -0.3565 C.3       1 <0>         0.0000
     11 C11         0.2195    0.8307    0.9188 C.3       1 <0>         0.0000
     12 C12        -1.0001    1.1700    0.0549 C.3       1 <0>         0.0000
     13 C13         2.3649   -0.5352    1.2935 C.3       1 <0>         0.0000
     14 C14         1.1534   -0.2750    0.3710 C.3       1 <0>         0.0000
     15 C15        -3.3416    0.5718   -1.2395 C.3       1 <0>         0.0000
     16 N1          1.6681    0.0834   -0.9557 N.3       1 <0>         0.0000
     17 N2          2.6023   -1.0670    4.9540 N.am      1 <0>         0.0000
     18 N3          2.8469   -0.6810    3.6590 N.am      1 <0>         0.0000
     19 O1          3.7293    0.7533    5.8374 O.2       1 <0>         0.0000
     20 O2          0.8915   -1.6405    2.8632 O.2       1 <0>         0.0000
     21 O3          3.2186   -1.5159    0.7230 O.3       1 <0>         0.0000
     22 S1         -2.0977   -0.2515   -0.2193 S.3       1 <0>         0.0000
     23 Cl1         4.3397   -0.4674   11.0222 Cl        1 <0>         0.0000
     24 H1          0.4302   -2.5616    9.0415 H         1 <0>         0.0000
     25 H2          0.9591   -1.7818    6.7584 H         1 <0>         0.0000
     26 H3          1.9126   -1.9897   10.9300 H         1 <0>         0.0000
     27 H4          4.4953    0.1729    8.2431 H         1 <0>         0.0000
     28 H5         -4.6663   -1.1363   -1.3453 H         1 <0>         0.0000
     29 H6         -4.8772    0.0053   -2.6747 H         1 <0>         0.0000
     30 H7         -3.4774   -1.0886   -2.6519 H         1 <0>         0.0000
     31 H8         -4.7949    0.7719    0.3515 H         1 <0>         0.0000
     32 H9         -5.0077    1.9429   -0.9517 H         1 <0>         0.0000
     33 H10        -3.6957    2.1500    0.2280 H         1 <0>         0.0000
     34 H11        -0.1531    0.5335    1.9082 H         1 <0>         0.0000
     35 H12         0.7975    1.7493    1.0822 H         1 <0>         0.0000
     36 H13        -0.6573    1.5138   -0.9268 H         1 <0>         0.0000
     37 H14        -1.5832    1.9849    0.4933 H         1 <0>         0.0000
     38 H15         2.9484    0.3859    1.4229 H         1 <0>         0.0000
     39 H16         0.5915   -1.2082    0.2610 H         1 <0>         0.0000
     40 H17        -2.8138    1.2291   -1.9386 H         1 <0>         0.0000
     41 H18         0.8845    0.1717   -1.5934 H         1 <0>         0.0000
     42 H19         2.2416   -0.6802   -1.2969 H         1 <0>         0.0000
     43 H20         2.0769   -1.9119    5.1509 H         1 <0>         0.0000
     44 H21         3.6858   -0.1599    3.4266 H         1 <0>         0.0000
     45 H22         2.7041   -2.3378    0.6655 H         1 <0>         0.0000
@<TRIPOS>BOND
     1    1    2 ar
     2    1    3 ar
     3    2    5 ar
     4    3    6 ar
     5    4    5 ar
     6    4    6 ar
     7    5    7 1
     8    6   23 1
     9    7   17 am
    10    7   19 2
    11    8   13 1
    12    8   18 am
    13    8   20 2
    14    9   15 1
    15   10   15 1
    16   11   12 1
    17   11   14 1
    18   12   22 1
    19   13   14 1
    20   13   21 1
    21   14   16 1
    22   15   22 1
    23   17   18 1
    24    1   24 1
    25    2   25 1
    26    3   26 1
    27    4   27 1
    28    9   28 1
    29    9   29 1
    30    9   30 1
    31   10   31 1
    32   10   32 1
    33   10   33 1
    34   11   34 1
    35   11   35 1
    36   12   36 1
    37   12   37 1
    38   13   38 1
    39   14   39 1
    40   15   40 1
    41   16   41 1
    42   16   42 1
    43   17   43 1
    44   18   44 1
    45   21   45 1
@<TRIPOS>MOLECULE
LIGAND
   45    45     0     0     0
SMALL
NO_CHARGES

@<TRIPOS>ATOM
      1 C1         -1.2501   -6.2406    6.4062 C.ar      1 <0>         0.0000
      2 C2         -0.8112   -5.7409    5.1802 C.ar      1 <0>         0.0000
      3 C3         -1.4263   -5.3781    7.4882 C.ar      1 <0>         0.0000
      4 C4         -0.7243   -3.5161    6.1181 C.ar      1 <0>         0.0000
      5 C5         -0.5482   -4.3787    5.0361 C.ar      1 <0>         0.0000
      6 C6         -1.1634   -4.0158    7.3441 C.ar      1 <0>         0.0000
      7 C7         -0.0800   -3.8473    3.7299 C.2       1 <0>         0.0000
      8 C8          1.9325   -1.0133    2.6768 C.2       1 <0>         0.0000
      9 C9         -4.0623    0.8550    1.3177 C.3       1 <0>         0.0000
     10 C10        -3.5584   -1.5885    1.6583 C.3       1 <0>         0.0000
     11 C11         0.2195    0.8307    0.9188 C.3       1 <0>         0.0000
     12 C12        -1.0001    1.1700    0.0549 C.3       1 <0>         0.0000
     13 C13         2.3649   -0.5352    1.2935 C.3       1 <0>         0.0000
     14 C14         1.1534   -0.2750    0.3710 C.3       1 <0>         0.0000
     15 C15        -2.9754   -0.2124    1.3599 C.3       1 <0>         0.0000
     16 N1          1.6681    0.0834   -0.9557 N.3       1 <0>         0.0000
     17 N2          0.6851   -2.6985    3.7909 N.am      1 <0>         0.0000
     18 N3          1.1665   -2.1628    2.6216 N.am      1 <0>         0.0000
     19 O1         -0.3732   -4.4442    2.6969 O.2       1 <0>         0.0000
     20 O2          2.2299   -0.4108    3.7066 O.2       1 <0>         0.0000
     21 O3          3.2186   -1.5159    0.7230 O.3       1 <0>         0.0000
     22 S1         -2.0977   -0.2515   -0.2193 S.3       1 <0>         0.0000
     23 Cl1        -1.3814   -2.9519    8.6795 Cl        1 <0>         0.0000
     24 H1         -1.4551   -7.3012    6.5181 H         1 <0>         0.0000
     25 H2         -0.6775   -6.4230    4.3445 H         1 <0>         0.0000
     26 H3         -1.7689   -5.7818    8.4375 H         1 <0>         0.0000
     27 H4         -0.5190   -2.4537    6.0026 H         1 <0>         0.0000
     28 H5         -4.8019    0.6148    0.5457 H         1 <0>         0.0000
     29 H6         -4.5966    0.9180    2.2722 H         1 <0>         0.0000
     30 H7         -3.6542    1.8453    1.0855 H         1 <0>         0.0000
     31 H8         -4.2902   -1.8663    0.8915 H         1 <0>         0.0000
     32 H9         -4.0769   -1.6012    2.6234 H         1 <0>         0.0000
     33 H10        -2.7856   -2.3656    1.6725 H         1 <0>         0.0000
     34 H11        -0.1531    0.5335    1.9082 H         1 <0>         0.0000
     35 H12         0.7975    1.7493    1.0822 H         1 <0>         0.0000
     36 H13        -0.6573    1.5138   -0.9268 H         1 <0>         0.0000
     37 H14        -1.5832    1.9849    0.4933 H         1 <0>         0.0000
     38 H15         2.9484    0.3859    1.4229 H         1 <0>         0.0000
     39 H16         0.5915   -1.2082    0.2610 H         1 <0>         0.0000
     40 H17        -2.2476    0.0460    2.1366 H         1 <0>         0.0000
     41 H18         0.8845    0.1717   -1.5934 H         1 <0>         0.0000
     42 H19         2.2416   -0.6802   -1.2969 H         1 <0>         0.0000
     43 H20         0.8873   -2.2591    4.6823 H         1 <0>         0.0000
     44 H21         0.9630   -2.6038    1.7309 H         1 <0>         0.0000
     45 H22         2.7041   -2.3378    0.6655 H         1 <0>         0.0000
@<TRIPOS>BOND
     1    1    2 ar
     2    1    3 ar
     3    2    5 ar
     4    3    6 ar
     5    4    5 ar
     6    4    6 ar
     7    5    7 1
     8    6   23 1
     9    7   17 am
    10    7   19 2
    11    8   13 1
    12    8   18 am
    13    8   20 2
    14    9   15 1
    15   10   15 1
    16   11   12 1
    17   11   14 1
    18   12   22 1
    19   13   14 1
    20   13   21 1
    21   14   16 1
    22   15   22 1
    23   17   18 1
    24    1   24 1
    25    2   25 1
    26    3   26 1
    27    4   27 1
    28    9   28 1
    29    9   29 1
    30    9   30 1
    31   10   31 1
    32   10   32 1
    33   10   33 1
    34   11   34 1
    35   11   35 1
    36   12   36 1
    37   12   37 1
    38   13   38 1
    39   14   39 1
    40   15   40 1
    41   16   41 1
    42   16   42 1
    43   17   43 1
    44   18   44 1
    45   21   45 1
@<TRIPOS>MOLECULE
LIGAND
   45    45     0     0     0
SMALL
NO_CHARGES

@<TRIPOS>ATOM
      1 C1         -0.8568   -0.8437    8.7635 C.ar      1 <0>         0.0000
      2 C2         -0.6134   -0.4635    7.4437 C.ar      1 <0>         0.0000
      3 C3          0.2081   -1.1727    9.6022 C.ar      1 <0>         0.0000
      4 C4          1.7598   -0.7415    7.8013 C.ar      1 <0>         0.0000
      5 C5          0.6949   -0.4125    6.9626 C.ar      1 <0>         0.0000
      6 C6          1.5164   -1.1216    9.1211 C.ar      1 <0>         0.0000
      7 C7          0.9532   -0.0081    5.5563 C.2       1 <0>         0.0000
      8 C8          1.9325   -1.0133    2.6768 C.2       1 <0>         0.0000
      9 C9          1.4564    5.4762    1.2996 C.3       1 <0>         0.0000
     10 C10         0.2261    5.4824    3.4965 C.3       1 <0>         0.0000
     11 C11         0.2195    0.8307    0.9188 C.3       1 <0>         0.0000
     12 C12         0.8590    2.2074    1.1305 C.3       1 <0>         0.0000
     13 C13         2.3649   -0.5352    1.2935 C.3       1 <0>         0.0000
     14 C14         1.1534   -0.2750    0.3710 C.3       1 <0>         0.0000
     15 C15         0.8895    4.6225    2.4275 C.3       1 <0>         0.0000
     16 N1          1.6681    0.0834   -0.9557 N.3       1 <0>         0.0000
     17 N2          2.1084   -0.5131    4.9911 N.am      1 <0>         0.0000
     18 N3          2.3999   -0.1941    3.6876 N.am      1 <0>         0.0000
     19 O1          0.1465    0.7178    4.9806 O.2       1 <0>         0.0000
     20 O2          1.2610   -2.0296    2.8442 O.2       1 <0>         0.0000
     21 O3          3.2186   -1.5159    0.7230 O.3       1 <0>         0.0000
     22 S1         -0.3102    3.4478    1.7590 S.3       1 <0>         0.0000
     23 Cl1         2.8299   -1.5272   10.1568 Cl        1 <0>         0.0000
     24 H1         -1.8754   -0.8830    9.1379 H         1 <0>         0.0000
     25 H2         -1.4514   -0.2096    6.7997 H         1 <0>         0.0000
     26 H3          0.0031   -1.4671   10.6283 H         1 <0>         0.0000
     27 H4          2.7794   -0.7003    7.4234 H         1 <0>         0.0000
     28 H5          0.6599    6.0638    0.8297 H         1 <0>         0.0000
     29 H6          2.2059    6.1832    1.6727 H         1 <0>         0.0000
     30 H7          1.9195    4.8646    0.5169 H         1 <0>         0.0000
     31 H8         -0.5894    6.0701    3.0604 H         1 <0>         0.0000
     32 H9          0.9374    6.1894    3.9378 H         1 <0>         0.0000
     33 H10        -0.2008    4.8752    4.3030 H         1 <0>         0.0000
     34 H11        -0.6259    0.9652    0.2307 H         1 <0>         0.0000
     35 H12        -0.2197    0.5004    1.8688 H         1 <0>         0.0000
     36 H13         1.2423    2.5738    0.1722 H         1 <0>         0.0000
     37 H14         1.7108    2.1489    1.8142 H         1 <0>         0.0000
     38 H15         2.9484    0.3859    1.4229 H         1 <0>         0.0000
     39 H16         0.5915   -1.2082    0.2610 H         1 <0>         0.0000
     40 H17         1.7002    4.0441    2.8832 H         1 <0>         0.0000
     41 H18         0.8845    0.1717   -1.5934 H         1 <0>         0.0000
     42 H19         2.2416   -0.6802   -1.2969 H         1 <0>         0.0000
     43 H20         2.7293   -1.1081    5.5287 H         1 <0>         0.0000
     44 H21         2.9499    0.6302    3.4697 H         1 <0>         0.0000
     45 H22         2.7041   -2.3378    0.6655 H         1 <0>         0.0000
@<TRIPOS>BOND
     1    1    2 ar
     2    1    3 ar
     3    2    5 ar
     4    3    6 ar
     5    4    5 ar
     6    4    6 ar
     7    5    7 1
     8    6   23 1
     9    7   17 am
    10    7   19 2
    11    8   13 1
    12    8   18 am
    13    8   20 2
    14    9   15 1
    15   10   15 1
    16   11   12 1
    17   11   14 1
    18   12   22 1
    19   13   14 1
    20   13   21 1
    21   14   16 1
    22   15   22 1
    23   17   18 1
    24    1   24 1
    25    2   25 1
    26    3   26 1
    27    4   27 1
    28    9   28 1
    29    9   29 1
    30    9   30 1
    31   10   31 1
    32   10   32 1
    33   10   33 1
    34   11   34 1
    35   11   35 1
    36   12   36 1
    37   12   37 1
    38   13   38 1
    39   14   39 1
    40   15   40 1
    41   16   41 1
    42   16   42 1
    43   17   43 1
    44   18   44 1
    45   21   45 1
@<TRIPOS>MOLECULE
LIGAND
   45    45     0     0     0
SMALL
NO_CHARGES

@<TRIPOS>ATOM
      1 C1         -0.9264   -0.6930    8.4760 C.ar      1 <0>         0.0000
      2 C2         -0.4061   -0.3932    7.2170 C.ar      1 <0>         0.0000
      3 C3         -0.0659   -0.9225    9.5497 C.ar      1 <0>         0.0000
      4 C4          1.8351   -0.5526    8.1053 C.ar      1 <0>         0.0000
      5 C5          0.9746   -0.3231    7.0316 C.ar      1 <0>         0.0000
      6 C6          1.3148   -0.8524    9.3643 C.ar      1 <0>         0.0000
      7 C7          1.5280   -0.0043    5.6900 C.2       1 <0>         0.0000
      8 C8          1.9325   -1.0133    2.6768 C.2       1 <0>         0.0000
      9 C9          2.1016    5.5550   -0.7655 C.3       1 <0>         0.0000
     10 C10         3.8195    4.0640    0.3143 C.3       1 <0>         0.0000
     11 C11         1.5761    0.1765   -1.0474 C.3       1 <0>         0.0000
     12 C12         2.3784    1.4800   -1.1273 C.3       1 <0>         0.0000
     13 C13         2.3649   -0.5352    1.2935 C.3       1 <0>         0.0000
     14 C14         1.1534   -0.2750    0.3710 C.3       1 <0>         0.0000
     15 C15         2.7418    4.1721   -0.7577 C.3       1 <0>         0.0000
     16 N1          0.3597   -1.5080    0.3138 N.3       1 <0>         0.0000
     17 N2          0.7320   -0.3536    4.6161 N.am      1 <0>         0.0000
     18 N3          1.1743   -0.0714    3.3469 N.am      1 <0>         0.0000
     19 O1          2.6215    0.5492    5.6056 O.2       1 <0>         0.0000
     20 O2          2.2555   -2.1109    3.1269 O.2       1 <0>         0.0000
     21 O3          3.2186   -1.5159    0.7230 O.3       1 <0>         0.0000
     22 S1          1.4741    2.9151   -0.4766 S.3       1 <0>         0.0000
     23 Cl1         2.3759   -1.1353   10.6896 Cl        1 <0>         0.0000
     24 H1         -2.0014   -0.7472    8.6202 H         1 <0>         0.0000
     25 H2         -1.0867   -0.2164    6.3881 H         1 <0>         0.0000
     26 H3         -0.4859   -1.1551   10.5249 H         1 <0>         0.0000
     27 H4          2.9117   -0.4967    7.9578 H         1 <0>         0.0000
     28 H5          1.6476    5.7697    0.2083 H         1 <0>         0.0000
     29 H6          2.8444    6.3372   -0.9581 H         1 <0>         0.0000
     30 H7          1.3123    5.6360   -1.5215 H         1 <0>         0.0000
     31 H8          3.3919    4.2558    1.3048 H         1 <0>         0.0000
     32 H9          4.6156    4.7998    0.1551 H         1 <0>         0.0000
     33 H10         4.2729    3.0665    0.3392 H         1 <0>         0.0000
     34 H11         2.1843   -0.6108   -1.5125 H         1 <0>         0.0000
     35 H12         0.6847    0.2765   -1.6798 H         1 <0>         0.0000
     36 H13         2.6151    1.6893   -2.1758 H         1 <0>         0.0000
     37 H14         3.3304    1.3937   -0.5957 H         1 <0>         0.0000
     38 H15         2.9484    0.3859    1.4229 H         1 <0>         0.0000
     39 H16         0.5249    0.4957    0.8291 H         1 <0>         0.0000
     40 H17         3.1890    3.9773   -1.7383 H         1 <0>         0.0000
     41 H18        -0.4842   -1.3249   -0.2178 H         1 <0>         0.0000
     42 H19         0.0690   -1.7492    1.2550 H         1 <0>         0.0000
     43 H20        -0.1619   -0.8097    4.7623 H         1 <0>         0.0000
     44 H21         0.9480    0.8148    2.9078 H         1 <0>         0.0000
     45 H22         2.7041   -2.3378    0.6655 H         1 <0>         0.0000
@<TRIPOS>BOND
     1    1    2 ar
     2    1    3 ar
     3    2    5 ar
     4    3    6 ar
     5    4    5 ar
     6    4    6 ar
     7    5    7 1
     8    6   23 1
     9    7   17 am
    10    7   19 2
    11    8   13 1
    12    8   18 am
    13    8   20 2
    14    9   15 1
    15   10   15 1
    16   11   12 1
    17   11   14 1
    18   12   22 1
    19   13   14 1
    20   13   21 1
    21   14   16 1
    22   15   22 1
    23   17   18 1
    24    1   24 1
    25    2   25 1
    26    3   26 1
    27    4   27 1
    28    9   28 1
    29    9   29 1
    30    9   30 1
    31   10   31 1
    32   10   32 1
    33   10   33 1
    34   11   34 1
    35   11   35 1
    36   12   36 1
    37   12   37 1
    38   13   38 1
    39   14   39 1
    40   15   40 1
    41   16   41 1
    42   16   42 1
    43   17   43 1
    44   18   44 1
    45   21   45 1
@<TRIPOS>MOLECULE
LIGAND
   45    45     0     0     0
SMALL
NO_CHARGES

@<TRIPOS>ATOM
      1 C1         -0.9982   -4.7984    7.0345 C.ar      1 <0>         0.0000
      2 C2         -0.5646   -4.1991    5.8520 C.ar      1 <0>         0.0000
      3 C3         -1.8801   -4.1214    7.8770 C.ar      1 <0>         0.0000
      4 C4         -1.8946   -2.2457    6.3543 C.ar      1 <0>         0.0000
      5 C5         -1.0128   -2.9227    5.5119 C.ar      1 <0>         0.0000
      6 C6         -2.3282   -2.8450    7.5369 C.ar      1 <0>         0.0000
      7 C7         -0.5498   -2.2848    4.2523 C.2       1 <0>         0.0000
      8 C8          1.9325   -1.0133    2.6768 C.2       1 <0>         0.0000
      9 C9          0.9492    3.5395    4.1781 C.3       1 <0>         0.0000
     10 C10        -1.5671    3.4454    4.1811 C.3       1 <0>         0.0000
     11 C11         0.2195    0.8307    0.9188 C.3       1 <0>         0.0000
     12 C12         0.8590    2.2074    1.1305 C.3       1 <0>         0.0000
     13 C13         2.3649   -0.5352    1.2935 C.3       1 <0>         0.0000
     14 C14         1.1534   -0.2750    0.3710 C.3       1 <0>         0.0000
     15 C15        -0.2901    2.9668    3.5009 C.3       1 <0>         0.0000
     16 N1          1.6681    0.0834   -0.9557 N.3       1 <0>         0.0000
     17 N2          0.6851   -2.6985    3.7909 N.am      1 <0>         0.0000
     18 N3          1.1665   -2.1628    2.6216 N.am      1 <0>         0.0000
     19 O1         -1.2703   -1.4609    3.6944 O.2       1 <0>         0.0000
     20 O2          2.2299   -0.4108    3.7066 O.2       1 <0>         0.0000
     21 O3          3.2186   -1.5159    0.7230 O.3       1 <0>         0.0000
     22 S1         -0.3102    3.4478    1.7590 S.3       1 <0>         0.0000
     23 Cl1        -3.4168   -2.0104    8.5766 Cl        1 <0>         0.0000
     24 H1         -0.6495   -5.7923    7.2990 H         1 <0>         0.0000
     25 H2          0.1227   -4.7366    5.2037 H         1 <0>         0.0000
     26 H3         -2.2094   -4.6010    8.7951 H         1 <0>         0.0000
     27 H4         -2.2430   -1.2503    6.0862 H         1 <0>         0.0000
     28 H5          0.9275    4.6347    4.1481 H         1 <0>         0.0000
     29 H6          1.0005    3.2436    5.2319 H         1 <0>         0.0000
     30 H7          1.8721    3.2151    3.6839 H         1 <0>         0.0000
     31 H8         -1.6274    4.5391    4.1512 H         1 <0>         0.0000
     32 H9         -1.5938    3.1464    5.2349 H         1 <0>         0.0000
     33 H10        -2.4642    3.0528    3.6891 H         1 <0>         0.0000
     34 H11        -0.6259    0.9652    0.2307 H         1 <0>         0.0000
     35 H12        -0.2197    0.5004    1.8688 H         1 <0>         0.0000
     36 H13         1.2423    2.5738    0.1722 H         1 <0>         0.0000
     37 H14         1.7108    2.1489    1.8142 H         1 <0>         0.0000
     38 H15         2.9484    0.3859    1.4229 H         1 <0>         0.0000
     39 H16         0.5915   -1.2082    0.2610 H         1 <0>         0.0000
     40 H17        -0.2491    1.8731    3.5416 H         1 <0>         0.0000
     41 H18         0.8845    0.1717   -1.5934 H         1 <0>         0.0000
     42 H19         2.2416   -0.6802   -1.2969 H         1 <0>         0.0000
     43 H20         1.2257   -3.3847    4.3060 H         1 <0>         0.0000
     44 H21         0.9630   -2.6038    1.7309 H         1 <0>         0.0000
     45 H22         2.7041   -2.3378    0.6655 H         1 <0>         0.0000
@<TRIPOS>BOND
     1    1    2 ar
     2    1    3 ar
     3    2    5 ar
     4    3    6 ar
     5    4    5 ar
     6    4    6 ar
     7    5    7 1
     8    6   23 1
     9    7   17 am
    10    7   19 2
    11    8   13 1
    12    8   18 am
    13    8   20 2
    14    9   15 1
    15   10   15 1
    16   11   12 1
    17   11   14 1
    18   12   22 1
    19   13   14 1
    20   13   21 1
    21   14   16 1
    22   15   22 1
    23   17   18 1
    24    1   24 1
    25    2   25 1
    26    3   26 1
    27    4   27 1
    28    9   28 1
    29    9   29 1
    30    9   30 1
    31   10   31 1
    32   10   32 1
    33   10   33 1
    34   11   34 1
    35   11   35 1
    36   12   36 1
    37   12   37 1
    38   13   38 1
    39   14   39 1
    40   15   40 1
    41   16   41 1
    42   16   42 1
    43   17   43 1
    44   18   44 1
    45   21   45 1
@<TRIPOS>MOLECULE
LIGAND
   45    45     0     0     0
SMALL
NO_CHARGES

@<TRIPOS>ATOM
      1 C1          1.3691   -2.5452    8.7036 C.ar      1 <0>         0.0000
      2 C2          1.5963   -2.0804    7.4082 C.ar      1 <0>         0.0000
      3 C3          1.1963   -1.6386    9.7496 C.ar      1 <0>         0.0000
      4 C4          1.4779    0.1975    8.2048 C.ar      1 <0>         0.0000
      5 C5          1.6507   -0.7090    7.1588 C.ar      1 <0>         0.0000
      6 C6          1.2507   -0.2673    9.5002 C.ar      1 <0>         0.0000
      7 C7          1.8934   -0.2148    5.7787 C.2       1 <0>         0.0000
      8 C8          1.9325   -1.0133    2.6768 C.2       1 <0>         0.0000
      9 C9         -0.3459    6.1254    1.2341 C.3       1 <0>         0.0000
     10 C10         1.7475    5.1698    2.2562 C.3       1 <0>         0.0000
     11 C11         0.2195    0.8307    0.9188 C.3       1 <0>         0.0000
     12 C12         0.8590    2.2074    1.1305 C.3       1 <0>         0.0000
     13 C13         2.3649   -0.5352    1.2935 C.3       1 <0>         0.0000
     14 C14         1.1534   -0.2750    0.3710 C.3       1 <0>         0.0000
     15 C15         0.6016    4.9327    1.2798 C.3       1 <0>         0.0000
     16 N1          1.6681    0.0834   -0.9557 N.3       1 <0>         0.0000
     17 N2          2.6023   -1.0670    4.9540 N.am      1 <0>         0.0000
     18 N3          2.8469   -0.6810    3.6590 N.am      1 <0>         0.0000
     19 O1          1.4534    0.8829    5.4461 O.2       1 <0>         0.0000
     20 O2          0.8915   -1.6405    2.8632 O.2       1 <0>         0.0000
     21 O3          3.2186   -1.5159    0.7230 O.3       1 <0>         0.0000
     22 S1         -0.3102    3.4478    1.7590 S.3       1 <0>         0.0000
     23 Cl1         1.0368    0.8507   10.7913 Cl        1 <0>         0.0000
     24 H1          1.3265   -3.6129    8.8975 H         1 <0>         0.0000
     25 H2          1.7296   -2.7965    6.6014 H         1 <0>         0.0000
     26 H3          1.0200   -2.0156   10.7537 H         1 <0>         0.0000
     27 H4          1.5203    1.2667    8.0072 H         1 <0>         0.0000
     28 H5         -0.7677    6.3147    2.2275 H         1 <0>         0.0000
     29 H6          0.1756    7.0373    0.9225 H         1 <0>         0.0000
     30 H7         -1.1835    5.9561    0.5478 H         1 <0>         0.0000
     31 H8          1.3579    5.3444    3.2653 H         1 <0>         0.0000
     32 H9          2.3340    6.0519    1.9762 H         1 <0>         0.0000
     33 H10         2.4242    4.3092    2.3091 H         1 <0>         0.0000
     34 H11        -0.6259    0.9652    0.2307 H         1 <0>         0.0000
     35 H12        -0.2197    0.5004    1.8688 H         1 <0>         0.0000
     36 H13         1.2423    2.5738    0.1722 H         1 <0>         0.0000
     37 H14         1.7108    2.1489    1.8142 H         1 <0>         0.0000
     38 H15         2.9484    0.3859    1.4229 H         1 <0>         0.0000
     39 H16         0.5915   -1.2082    0.2610 H         1 <0>         0.0000
     40 H17         1.0117    4.7605    0.2790 H         1 <0>         0.0000
     41 H18         0.8845    0.1717   -1.5934 H         1 <0>         0.0000
     42 H19         2.2416   -0.6802   -1.2969 H         1 <0>         0.0000
     43 H20         2.9356   -1.9607    5.2985 H         1 <0>         0.0000
     44 H21         3.6858   -0.1599    3.4266 H         1 <0>         0.0000
     45 H22         2.7041   -2.3378    0.6655 H         1 <0>         0.0000
@<TRIPOS>BOND
     1    1    2 ar
     2    1    3 ar
     3    2    5 ar
     4    3    6 ar
     5    4    5 ar
     6    4    6 ar
     7    5    7 1
     8    6   23 1
     9    7   17 am
    10    7   19 2
    11    8   13 1
    12    8   18 am
    13    8   20 2
    14    9   15 1
    15   10   15 1
    16   11   12 1
    17   11   14 1
    18   12   22 1
    19   13   14 1
    20   13   21 1
    21   14   16 1
    22   15   22 1
    23   17   18 1
    24    1   24 1
    25    2   25 1
    26    3   26 1
    27    4   27 1
    28    9   28 1
    29    9   29 1
    30    9   30 1
    31   10   31 1
    32   10   32 1
    33   10   33 1
    34   11   34 1
    35   11   35 1
    36   12   36 1
    37   12   37 1
    38   13   38 1
    39   14   39 1
    40   15   40 1
    41   16   41 1
    42   16   42 1
    43   17   43 1
    44   18   44 1
    45   21   45 1
@<TRIPOS>MOLECULE
LIGAND
   45    45     0     0     0
SMALL
NO_CHARGES

@<TRIPOS>ATOM
      1 C1          2.3084   -2.0825    9.0344 C.ar      1 <0>         0.0000
      2 C2          2.5351   -1.6185    7.7387 C.ar      1 <0>         0.0000
      3 C3          1.1971   -1.6371    9.7503 C.ar      1 <0>         0.0000
      4 C4          0.5395   -0.2636    7.8747 C.ar      1 <0>         0.0000
      5 C5          1.6507   -0.7090    7.1588 C.ar      1 <0>         0.0000
      6 C6          0.3127   -0.7276    9.1704 C.ar      1 <0>         0.0000
      7 C7          1.8934   -0.2148    5.7787 C.2       1 <0>         0.0000
      8 C8          1.9325   -1.0133    2.6768 C.2       1 <0>         0.0000
      9 C9          0.9492    3.5395    4.1781 C.3       1 <0>         0.0000
     10 C10        -1.5671    3.4454    4.1811 C.3       1 <0>         0.0000
     11 C11         0.2195    0.8307    0.9188 C.3       1 <0>         0.0000
     12 C12         0.8590    2.2074    1.1305 C.3       1 <0>         0.0000
     13 C13         2.3649   -0.5352    1.2935 C.3       1 <0>         0.0000
     14 C14         1.1534   -0.2750    0.3710 C.3       1 <0>         0.0000
     15 C15        -0.2901    2.9668    3.5009 C.3       1 <0>         0.0000
     16 N1          1.6681    0.0834   -0.9557 N.3       1 <0>         0.0000
     17 N2          2.6023   -1.0670    4.9540 N.am      1 <0>         0.0000
     18 N3          2.8469   -0.6810    3.6590 N.am      1 <0>         0.0000
     19 O1          1.4534    0.8829    5.4461 O.2       1 <0>         0.0000
     20 O2          0.8915   -1.6405    2.8632 O.2       1 <0>         0.0000
     21 O3          3.2186   -1.5159    0.7230 O.3       1 <0>         0.0000
     22 S1         -0.3102    3.4478    1.7590 S.3       1 <0>         0.0000
     23 Cl1        -1.0586   -0.1788   10.0541 Cl        1 <0>         0.0000
     24 H1          2.9969   -2.7909    9.4856 H         1 <0>         0.0000
     25 H2          3.4046   -1.9729    7.1910 H         1 <0>         0.0000
     26 H3          1.0333   -2.0074   10.7590 H         1 <0>         0.0000
     27 H4         -0.1491    0.4455    7.4196 H         1 <0>         0.0000
     28 H5          0.9275    4.6347    4.1481 H         1 <0>         0.0000
     29 H6          1.0005    3.2436    5.2319 H         1 <0>         0.0000
     30 H7          1.8721    3.2151    3.6839 H         1 <0>         0.0000
     31 H8         -1.6274    4.5391    4.1512 H         1 <0>         0.0000
     32 H9         -1.5938    3.1464    5.2349 H         1 <0>         0.0000
     33 H10        -2.4642    3.0528    3.6891 H         1 <0>         0.0000
     34 H11        -0.6259    0.9652    0.2307 H         1 <0>         0.0000
     35 H12        -0.2197    0.5004    1.8688 H         1 <0>         0.0000
     36 H13         1.2423    2.5738    0.1722 H         1 <0>         0.0000
     37 H14         1.7108    2.1489    1.8142 H         1 <0>         0.0000
     38 H15         2.9484    0.3859    1.4229 H         1 <0>         0.0000
     39 H16         0.5915   -1.2082    0.2610 H         1 <0>         0.0000
     40 H17        -0.2491    1.8731    3.5416 H         1 <0>         0.0000
     41 H18         0.8845    0.1717   -1.5934 H         1 <0>         0.0000
     42 H19         2.2416   -0.6802   -1.2969 H         1 <0>         0.0000
     43 H20         2.9356   -1.9607    5.2985 H         1 <0>         0.0000
     44 H21         3.6858   -0.1599    3.4266 H         1 <0>         0.0000
     45 H22         2.7041   -2.3378    0.6655 H         1 <0>         0.0000
@<TRIPOS>BOND
     1    1    2 ar
     2    1    3 ar
     3    2    5 ar
     4    3    6 ar
     5    4    5 ar
     6    4    6 ar
     7    5    7 1
     8    6   23 1
     9    7   17 am
    10    7   19 2
    11    8   13 1
    12    8   18 am
    13    8   20 2
    14    9   15 1
    15   10   15 1
    16   11   12 1
    17   11   14 1
    18   12   22 1
    19   13   14 1
    20   13   21 1
    21   14   16 1
    22   15   22 1
    23   17   18 1
    24    1   24 1
    25    2   25 1
    26    3   26 1
    27    4   27 1
    28    9   28 1
    29    9   29 1
    30    9   30 1
    31   10   31 1
    32   10   32 1
    33   10   33 1
    34   11   34 1
    35   11   35 1
    36   12   36 1
    37   12   37 1
    38   13   38 1
    39   14   39 1
    40   15   40 1
    41   16   41 1
    42   16   42 1
    43   17   43 1
    44   18   44 1
    45   21   45 1
@<TRIPOS>MOLECULE
LIGAND
   45    45     0     0     0
SMALL
NO_CHARGES

@<TRIPOS>ATOM
      1 C1          0.3862   -0.6315    8.9351 C.ar      1 <0>         0.0000
      2 C2          0.6829   -0.3226    7.6077 C.ar      1 <0>         0.0000
      3 C3         -0.8301   -1.2346    9.2558 C.ar      1 <0>         0.0000
      4 C4         -1.4528   -1.2197    6.9215 C.ar      1 <0>         0.0000
      5 C5         -0.2366   -0.6167    6.6009 C.ar      1 <0>         0.0000
      6 C6         -1.7496   -1.5286    8.2490 C.ar      1 <0>         0.0000
      7 C7          0.0801   -0.2867    5.1871 C.2       1 <0>         0.0000
      8 C8          1.9325   -1.0133    2.6768 C.2       1 <0>         0.0000
      9 C9         -3.5456    2.3208    3.0565 C.3       1 <0>         0.0000
     10 C10        -4.0220    0.6377    1.2453 C.3       1 <0>         0.0000
     11 C11         0.2195    0.8307    0.9188 C.3       1 <0>         0.0000
     12 C12        -1.0001    1.1700    0.0549 C.3       1 <0>         0.0000
     13 C13         2.3649   -0.5352    1.2935 C.3       1 <0>         0.0000
     14 C14         1.1534   -0.2750    0.3710 C.3       1 <0>         0.0000
     15 C15        -2.9459    1.4397    1.9673 C.3       1 <0>         0.0000
     16 N1          1.6681    0.0834   -0.9557 N.3       1 <0>         0.0000
     17 N2          1.4238   -0.2520    4.8674 N.am      1 <0>         0.0000
     18 N3          1.7877    0.0290    3.5734 N.am      1 <0>         0.0000
     19 O1         -0.8375   -0.0833    4.3961 O.2       1 <0>         0.0000
     20 O2          1.7602   -2.2018    2.9407 O.2       1 <0>         0.0000
     21 O3          3.2186   -1.5159    0.7230 O.3       1 <0>         0.0000
     22 S1         -2.0492    2.4644    0.7791 S.3       1 <0>         0.0000
     23 Cl1        -3.2499   -2.2732    8.6452 Cl        1 <0>         0.0000
     24 H1          1.1023   -0.4028    9.7188 H         1 <0>         0.0000
     25 H2          1.6339    0.1473    7.3703 H         1 <0>         0.0000
     26 H3         -1.0475   -1.4695   10.2945 H         1 <0>         0.0000
     27 H4         -2.1680   -1.4485    6.1339 H         1 <0>         0.0000
     28 H5         -4.2705    3.0197    2.6246 H         1 <0>         0.0000
     29 H6         -4.0763    1.7229    3.8059 H         1 <0>         0.0000
     30 H7         -2.7806    2.9152    3.5690 H         1 <0>         0.0000
     31 H8         -4.7543    1.3108    0.7855 H         1 <0>         0.0000
     32 H9         -4.5673   -0.0125    1.9385 H         1 <0>         0.0000
     33 H10        -3.6015    0.0146    0.4477 H         1 <0>         0.0000
     34 H11        -0.1531    0.5335    1.9082 H         1 <0>         0.0000
     35 H12         0.7975    1.7493    1.0822 H         1 <0>         0.0000
     36 H13        -1.6176    0.2727   -0.0585 H         1 <0>         0.0000
     37 H14        -0.7009    1.4813   -0.9501 H         1 <0>         0.0000
     38 H15         2.9484    0.3859    1.4229 H         1 <0>         0.0000
     39 H16         0.5915   -1.2082    0.2610 H         1 <0>         0.0000
     40 H17        -2.2253    0.7496    2.4190 H         1 <0>         0.0000
     41 H18         0.8845    0.1717   -1.5934 H         1 <0>         0.0000
     42 H19         2.2416   -0.6802   -1.2969 H         1 <0>         0.0000
     43 H20         2.1281   -0.4306    5.5750 H         1 <0>         0.0000
     44 H21         1.9478    0.9869    3.2798 H         1 <0>         0.0000
     45 H22         2.7041   -2.3378    0.6655 H         1 <0>         0.0000
@<TRIPOS>BOND
     1    1    2 ar
     2    1    3 ar
     3    2    5 ar
     4    3    6 ar
     5    4    5 ar
     6    4    6 ar
     7    5    7 1
     8    6   23 1
     9    7   17 am
    10    7   19 2
    11    8   13 1
    12    8   18 am
    13    8   20 2
    14    9   15 1
    15   10   15 1
    16   11   12 1
    17   11   14 1
    18   12   22 1
    19   13   14 1
    20   13   21 1
    21   14   16 1
    22   15   22 1
    23   17   18 1
    24    1   24 1
    25    2   25 1
    26    3   26 1
    27    4   27 1
    28    9   28 1
    29    9   29 1
    30    9   30 1
    31   10   31 1
    32   10   32 1
    33   10   33 1
    34   11   34 1
    35   11   35 1
    36   12   36 1
    37   12   37 1
    38   13   38 1
    39   14   39 1
    40   15   40 1
    41   16   41 1
    42   16   42 1
    43   17   43 1
    44   18   44 1
    45   21   45 1
@<TRIPOS>MOLECULE
LIGAND
   45    45     0     0     0
SMALL
NO_CHARGES

@<TRIPOS>ATOM
      1 C1         -0.5153   -4.0016    7.6155 C.ar      1 <0>         0.0000
      2 C2         -0.0816   -3.4032    6.4326 C.ar      1 <0>         0.0000
      3 C3         -1.8803   -4.1197    7.8777 C.ar      1 <0>         0.0000
      4 C4         -2.3777   -3.0408    5.7741 C.ar      1 <0>         0.0000
      5 C5         -1.0128   -2.9227    5.5119 C.ar      1 <0>         0.0000
      6 C6         -2.8114   -3.6393    6.9570 C.ar      1 <0>         0.0000
      7 C7         -0.5498   -2.2848    4.2523 C.2       1 <0>         0.0000
      8 C8          1.9325   -1.0133    2.6768 C.2       1 <0>         0.0000
      9 C9         -2.8396    0.6809   -2.6742 C.3       1 <0>         0.0000
     10 C10        -4.6560   -0.1960   -1.1670 C.3       1 <0>         0.0000
     11 C11         0.2195    0.8307    0.9188 C.3       1 <0>         0.0000
     12 C12        -1.0001    1.1700    0.0549 C.3       1 <0>         0.0000
     13 C13         2.3649   -0.5352    1.2935 C.3       1 <0>         0.0000
     14 C14         1.1534   -0.2750    0.3710 C.3       1 <0>         0.0000
     15 C15        -3.3416    0.5718   -1.2395 C.3       1 <0>         0.0000
     16 N1          1.6681    0.0834   -0.9557 N.3       1 <0>         0.0000
     17 N2          0.6851   -2.6985    3.7909 N.am      1 <0>         0.0000
     18 N3          1.1665   -2.1628    2.6216 N.am      1 <0>         0.0000
     19 O1         -1.2703   -1.4609    3.6944 O.2       1 <0>         0.0000
     20 O2          2.2299   -0.4108    3.7066 O.2       1 <0>         0.0000
     21 O3          3.2186   -1.5159    0.7230 O.3       1 <0>         0.0000
     22 S1         -2.0977   -0.2515   -0.2193 S.3       1 <0>         0.0000
     23 Cl1        -4.4955   -3.7857    7.2810 Cl        1 <0>         0.0000
     24 H1          0.2098   -4.3759    8.3321 H         1 <0>         0.0000
     25 H2          0.9846   -3.3169    6.2396 H         1 <0>         0.0000
     26 H3         -2.2034   -4.5883    8.8037 H         1 <0>         0.0000
     27 H4         -3.1019   -2.6655    5.0538 H         1 <0>         0.0000
     28 H5         -2.6847   -0.3167   -3.1002 H         1 <0>         0.0000
     29 H6         -3.5648    1.1984   -3.3121 H         1 <0>         0.0000
     30 H7         -1.8850    1.2160   -2.7338 H         1 <0>         0.0000
     31 H8         -4.5291   -1.2071   -1.5698 H         1 <0>         0.0000
     32 H9         -5.4375    0.2943   -1.7580 H         1 <0>         0.0000
     33 H10        -5.0153   -0.2952   -0.1363 H         1 <0>         0.0000
     34 H11        -0.1531    0.5335    1.9082 H         1 <0>         0.0000
     35 H12         0.7975    1.7493    1.0822 H         1 <0>         0.0000
     36 H13        -0.6573    1.5138   -0.9268 H         1 <0>         0.0000
     37 H14        -1.5832    1.9849    0.4933 H         1 <0>         0.0000
     38 H15         2.9484    0.3859    1.4229 H         1 <0>         0.0000
     39 H16         0.5915   -1.2082    0.2610 H         1 <0>         0.0000
     40 H17        -3.4899    1.5778   -0.8328 H         1 <0>         0.0000
     41 H18         0.8845    0.1717   -1.5934 H         1 <0>         0.0000
     42 H19         2.2416   -0.6802   -1.2969 H         1 <0>         0.0000
     43 H20         1.2257   -3.3847    4.3060 H         1 <0>         0.0000
     44 H21         0.9630   -2.6038    1.7309 H         1 <0>         0.0000
     45 H22         2.7041   -2.3378    0.6655 H         1 <0>         0.0000
@<TRIPOS>BOND
     1    1    2 ar
     2    1    3 ar
     3    2    5 ar
     4    3    6 ar
     5    4    5 ar
     6    4    6 ar
     7    5    7 1
     8    6   23 1
     9    7   17 am
    10    7   19 2
    11    8   13 1
    12    8   18 am
    13    8   20 2
    14    9   15 1
    15   10   15 1
    16   11   12 1
    17   11   14 1
    18   12   22 1
    19   13   14 1
    20   13   21 1
    21   14   16 1
    22   15   22 1
    23   17   18 1
    24    1   24 1
    25    2   25 1
    26    3   26 1
    27    4   27 1
    28    9   28 1
    29    9   29 1
    30    9   30 1
    31   10   31 1
    32   10   32 1
    33   10   33 1
    34   11   34 1
    35   11   35 1
    36   12   36 1
    37   12   37 1
    38   13   38 1
    39   14   39 1
    40   15   40 1
    41   16   41 1
    42   16   42 1
    43   17   43 1
    44   18   44 1
    45   21   45 1
@<TRIPOS>MOLECULE
LIGAND
   45    45     0     0     0
SMALL
NO_CHARGES

@<TRIPOS>ATOM
      1 C1          0.6903   -1.4334    8.8465 C.ar      1 <0>         0.0000
      2 C2          1.1123   -1.0980    7.5601 C.ar      1 <0>         0.0000
      3 C3          0.5659   -0.4424    9.8203 C.ar      1 <0>         0.0000
      4 C4          1.2856    1.2194    8.2211 C.ar      1 <0>         0.0000
      5 C5          1.4099    0.2284    7.2473 C.ar      1 <0>         0.0000
      6 C6          0.8636    0.8839    9.5076 C.ar      1 <0>         0.0000
      7 C7          1.8600    0.5847    5.8768 C.2       1 <0>         0.0000
      8 C8          1.9325   -1.0133    2.6768 C.2       1 <0>         0.0000
      9 C9         -2.0930    0.1515   -2.9182 C.3       1 <0>         0.0000
     10 C10        -4.3052   -0.3408   -1.8209 C.3       1 <0>         0.0000
     11 C11         0.2195    0.8307    0.9188 C.3       1 <0>         0.0000
     12 C12        -1.0001    1.1700    0.0549 C.3       1 <0>         0.0000
     13 C13         2.3649   -0.5352    1.2935 C.3       1 <0>         0.0000
     14 C14         1.1534   -0.2750    0.3710 C.3       1 <0>         0.0000
     15 C15        -2.9606    0.3632   -1.6834 C.3       1 <0>         0.0000
     16 N1          1.6681    0.0834   -0.9557 N.3       1 <0>         0.0000
     17 N2          1.4238   -0.2520    4.8674 N.am      1 <0>         0.0000
     18 N3          1.7877    0.0290    3.5734 N.am      1 <0>         0.0000
     19 O1          2.5607    1.5803    5.7128 O.2       1 <0>         0.0000
     20 O2          1.7602   -2.2018    2.9407 O.2       1 <0>         0.0000
     21 O3          3.2186   -1.5159    0.7230 O.3       1 <0>         0.0000
     22 S1         -2.0977   -0.2515   -0.2193 S.3       1 <0>         0.0000
     23 Cl1         0.7094    2.1063   10.7095 Cl        1 <0>         0.0000
     24 H1          0.4583   -2.4661    9.0897 H         1 <0>         0.0000
     25 H2          1.2054   -1.8791    6.8098 H         1 <0>         0.0000
     26 H3          0.2360   -0.7187   10.8184 H         1 <0>         0.0000
     27 H4          1.5180    2.2533    7.9741 H         1 <0>         0.0000
     28 H5         -1.9123   -0.9173   -3.0778 H         1 <0>         0.0000
     29 H6         -2.5817    0.5374   -3.8198 H         1 <0>         0.0000
     30 H7         -1.1164    0.6393   -2.8203 H         1 <0>         0.0000
     31 H8         -4.1585   -1.4173   -1.9636 H         1 <0>         0.0000
     32 H9         -4.8626    0.0299   -2.6884 H         1 <0>         0.0000
     33 H10        -4.9288   -0.2091   -0.9293 H         1 <0>         0.0000
     34 H11        -0.1531    0.5335    1.9082 H         1 <0>         0.0000
     35 H12         0.7975    1.7493    1.0822 H         1 <0>         0.0000
     36 H13        -0.6573    1.5138   -0.9268 H         1 <0>         0.0000
     37 H14        -1.5832    1.9849    0.4933 H         1 <0>         0.0000
     38 H15         2.9484    0.3859    1.4229 H         1 <0>         0.0000
     39 H16         0.5915   -1.2082    0.2610 H         1 <0>         0.0000
     40 H17        -3.1292    1.4361   -1.5418 H         1 <0>         0.0000
     41 H18         0.8845    0.1717   -1.5934 H         1 <0>         0.0000
     42 H19         2.2416   -0.6802   -1.2969 H         1 <0>         0.0000
     43 H20         0.8460   -1.0583    5.0782 H         1 <0>         0.0000
     44 H21         1.9478    0.9869    3.2798 H         1 <0>         0.0000
     45 H22         2.7041   -2.3378    0.6655 H         1 <0>         0.0000
@<TRIPOS>BOND
     1    1    2 ar
     2    1    3 ar
     3    2    5 ar
     4    3    6 ar
     5    4    5 ar
     6    4    6 ar
     7    5    7 1
     8    6   23 1
     9    7   17 am
    10    7   19 2
    11    8   13 1
    12    8   18 am
    13    8   20 2
    14    9   15 1
    15   10   15 1
    16   11   12 1
    17   11   14 1
    18   12   22 1
    19   13   14 1
    20   13   21 1
    21   14   16 1
    22   15   22 1
    23   17   18 1
    24    1   24 1
    25    2   25 1
    26    3   26 1
    27    4   27 1
    28    9   28 1
    29    9   29 1
    30    9   30 1
    31   10   31 1
    32   10   32 1
    33   10   33 1
    34   11   34 1
    35   11   35 1
    36   12   36 1
    37   12   37 1
    38   13   38 1
    39   14   39 1
    40   15   40 1
    41   16   41 1
    42   16   42 1
    43   17   43 1
    44   18   44 1
    45   21   45 1
@<TRIPOS>MOLECULE
LIGAND
   45    45     0     0     0
SMALL
NO_CHARGES

@<TRIPOS>ATOM
      1 C1         -2.0859    0.3620    8.4478 C.ar      1 <0>         0.0000
      2 C2         -1.6873    0.7057    7.1561 C.ar      1 <0>         0.0000
      3 C3         -1.6782   -0.8505    9.0041 C.ar      1 <0>         0.0000
      4 C4         -0.4734   -1.3755    6.9768 C.ar      1 <0>         0.0000
      5 C5         -0.8811   -0.1631    6.4206 C.ar      1 <0>         0.0000
      6 C6         -0.8720   -1.7192    8.2686 C.ar      1 <0>         0.0000
      7 C7         -0.4576    0.2036    5.0443 C.2       1 <0>         0.0000
      8 C8          1.9325   -1.0133    2.6768 C.2       1 <0>         0.0000
      9 C9          2.7221    4.6042   -2.2190 C.3       1 <0>         0.0000
     10 C10         2.5092    5.3544    0.1752 C.3       1 <0>         0.0000
     11 C11         1.5761    0.1765   -1.0474 C.3       1 <0>         0.0000
     12 C12         2.3784    1.4800   -1.1273 C.3       1 <0>         0.0000
     13 C13         2.3649   -0.5352    1.2935 C.3       1 <0>         0.0000
     14 C14         1.1534   -0.2750    0.3710 C.3       1 <0>         0.0000
     15 C15         2.7418    4.1721   -0.7577 C.3       1 <0>         0.0000
     16 N1          0.3597   -1.5080    0.3138 N.3       1 <0>         0.0000
     17 N2          0.7320   -0.3536    4.6161 N.am      1 <0>         0.0000
     18 N3          1.1743   -0.0714    3.3469 N.am      1 <0>         0.0000
     19 O1         -1.1696    0.9461    4.3728 O.2       1 <0>         0.0000
     20 O2          2.2555   -2.1109    3.1269 O.2       1 <0>         0.0000
     21 O3          3.2186   -1.5159    0.7230 O.3       1 <0>         0.0000
     22 S1          1.4741    2.9151   -0.4766 S.3       1 <0>         0.0000
     23 Cl1        -0.3688   -3.2149    8.9559 Cl        1 <0>         0.0000
     24 H1         -2.7133    1.0387    9.0204 H         1 <0>         0.0000
     25 H2         -2.0115    1.6532    6.7333 H         1 <0>         0.0000
     26 H3         -1.9966   -1.1048   10.0118 H         1 <0>         0.0000
     27 H4          0.1559   -2.0511    6.4010 H         1 <0>         0.0000
     28 H5          1.7574    5.0604   -2.4680 H         1 <0>         0.0000
     29 H6          3.4979    5.3502   -2.4247 H         1 <0>         0.0000
     30 H7          2.8703    3.7569   -2.8981 H         1 <0>         0.0000
     31 H8          1.5412    5.8221   -0.0370 H         1 <0>         0.0000
     32 H9          3.2784    6.1235    0.0438 H         1 <0>         0.0000
     33 H10         2.5035    5.0496    1.2280 H         1 <0>         0.0000
     34 H11         2.1843   -0.6108   -1.5125 H         1 <0>         0.0000
     35 H12         0.6847    0.2765   -1.6798 H         1 <0>         0.0000
     36 H13         2.6151    1.6893   -2.1758 H         1 <0>         0.0000
     37 H14         3.3304    1.3937   -0.5957 H         1 <0>         0.0000
     38 H15         2.9484    0.3859    1.4229 H         1 <0>         0.0000
     39 H16         0.5249    0.4957    0.8291 H         1 <0>         0.0000
     40 H17         3.7127    3.7195   -0.5296 H         1 <0>         0.0000
     41 H18        -0.4842   -1.3249   -0.2178 H         1 <0>         0.0000
     42 H19         0.0690   -1.7492    1.2550 H         1 <0>         0.0000
     43 H20         1.2684   -0.9594    5.2274 H         1 <0>         0.0000
     44 H21         0.9480    0.8148    2.9078 H         1 <0>         0.0000
     45 H22         2.7041   -2.3378    0.6655 H         1 <0>         0.0000
@<TRIPOS>BOND
     1    1    2 ar
     2    1    3 ar
     3    2    5 ar
     4    3    6 ar
     5    4    5 ar
     6    4    6 ar
     7    5    7 1
     8    6   23 1
     9    7   17 am
    10    7   19 2
    11    8   13 1
    12    8   18 am
    13    8   20 2
    14    9   15 1
    15   10   15 1
    16   11   12 1
    17   11   14 1
    18   12   22 1
    19   13   14 1
    20   13   21 1
    21   14   16 1
    22   15   22 1
    23   17   18 1
    24    1   24 1
    25    2   25 1
    26    3   26 1
    27    4   27 1
    28    9   28 1
    29    9   29 1
    30    9   30 1
    31   10   31 1
    32   10   32 1
    33   10   33 1
    34   11   34 1
    35   11   35 1
    36   12   36 1
    37   12   37 1
    38   13   38 1
    39   14   39 1
    40   15   40 1
    41   16   41 1
    42   16   42 1
    43   17   43 1
    44   18   44 1
    45   21   45 1
@<TRIPOS>MOLECULE
LIGAND
   45    45     0     0     0
SMALL
NO_CHARGES

@<TRIPOS>ATOM
      1 C1          2.3269   -0.7274    9.5675 C.ar      1 <0>         0.0000
      2 C2          2.7671   -0.4681    8.2696 C.ar      1 <0>         0.0000
      3 C3          1.0657   -1.2849    9.7779 C.ar      1 <0>         0.0000
      4 C4          0.6848   -1.3238    7.3925 C.ar      1 <0>         0.0000
      5 C5          1.9460   -0.7663    7.1821 C.ar      1 <0>         0.0000
      6 C6          0.2446   -1.5831    8.6904 C.ar      1 <0>         0.0000
      7 C7          2.4155   -0.4891    5.7998 C.2       1 <0>         0.0000
      8 C8          1.9325   -1.0133    2.6768 C.2       1 <0>         0.0000
      9 C9         -4.5752    3.1779    0.0331 C.3       1 <0>         0.0000
     10 C10        -2.7668    3.3107   -1.7140 C.3       1 <0>         0.0000
     11 C11         0.2195    0.8307    0.9188 C.3       1 <0>         0.0000
     12 C12        -1.0001    1.1700    0.0549 C.3       1 <0>         0.0000
     13 C13         2.3649   -0.5352    1.2935 C.3       1 <0>         0.0000
     14 C14         1.1534   -0.2750    0.3710 C.3       1 <0>         0.0000
     15 C15        -3.3066    2.5373   -0.5169 C.3       1 <0>         0.0000
     16 N1          1.6681    0.0834   -0.9557 N.3       1 <0>         0.0000
     17 N2          1.4238   -0.2520    4.8674 N.am      1 <0>         0.0000
     18 N3          1.7877    0.0290    3.5734 N.am      1 <0>         0.0000
     19 O1          3.6213   -0.4699    5.5658 O.2       1 <0>         0.0000
     20 O2          1.7602   -2.2018    2.9407 O.2       1 <0>         0.0000
     21 O3          3.2186   -1.5159    0.7230 O.3       1 <0>         0.0000
     22 S1         -2.0492    2.4644    0.7791 S.3       1 <0>         0.0000
     23 Cl1        -1.3113   -2.2714    8.9508 Cl        1 <0>         0.0000
     24 H1          2.9664   -0.4955   10.4140 H         1 <0>         0.0000
     25 H2          3.7518   -0.0334    8.1183 H         1 <0>         0.0000
     26 H3          0.7362   -1.4814   10.7949 H         1 <0>         0.0000
     27 H4          0.0467   -1.5558    6.5422 H         1 <0>         0.0000
     28 H5         -4.3764    4.2092    0.3452 H         1 <0>         0.0000
     29 H6         -5.3650    3.2137   -0.7256 H         1 <0>         0.0000
     30 H7         -4.9604    2.6385    0.9059 H         1 <0>         0.0000
     31 H8         -2.5401    4.3441   -1.4288 H         1 <0>         0.0000
     32 H9         -3.5004    3.3505   -2.5268 H         1 <0>         0.0000
     33 H10        -1.8438    2.8672   -2.1048 H         1 <0>         0.0000
     34 H11        -0.1531    0.5335    1.9082 H         1 <0>         0.0000
     35 H12         0.7975    1.7493    1.0822 H         1 <0>         0.0000
     36 H13        -1.6176    0.2727   -0.0585 H         1 <0>         0.0000
     37 H14        -0.7009    1.4813   -0.9501 H         1 <0>         0.0000
     38 H15         2.9484    0.3859    1.4229 H         1 <0>         0.0000
     39 H16         0.5915   -1.2082    0.2610 H         1 <0>         0.0000
     40 H17        -3.5264    1.5088   -0.8227 H         1 <0>         0.0000
     41 H18         0.8845    0.1717   -1.5934 H         1 <0>         0.0000
     42 H19         2.2416   -0.6802   -1.2969 H         1 <0>         0.0000
     43 H20         0.4458   -0.2847    5.1337 H         1 <0>         0.0000
     44 H21         1.9478    0.9869    3.2798 H         1 <0>         0.0000
     45 H22         2.7041   -2.3378    0.6655 H         1 <0>         0.0000
@<TRIPOS>BOND
     1    1    2 ar
     2    1    3 ar
     3    2    5 ar
     4    3    6 ar
     5    4    5 ar
     6    4    6 ar
     7    5    7 1
     8    6   23 1
     9    7   17 am
    10    7   19 2
    11    8   13 1
    12    8   18 am
    13    8   20 2
    14    9   15 1
    15   10   15 1
    16   11   12 1
    17   11   14 1
    18   12   22 1
    19   13   14 1
    20   13   21 1
    21   14   16 1
    22   15   22 1
    23   17   18 1
    24    1   24 1
    25    2   25 1
    26    3   26 1
    27    4   27 1
    28    9   28 1
    29    9   29 1
    30    9   30 1
    31   10   31 1
    32   10   32 1
    33   10   33 1
    34   11   34 1
    35   11   35 1
    36   12   36 1
    37   12   37 1
    38   13   38 1
    39   14   39 1
    40   15   40 1
    41   16   41 1
    42   16   42 1
    43   17   43 1
    44   18   44 1
    45   21   45 1
@<TRIPOS>MOLECULE
LIGAND
   45    45     0     0     0
SMALL
NO_CHARGES

@<TRIPOS>ATOM
      1 C1         -0.2040   -0.8100    8.7149 C.ar      1 <0>         0.0000
      2 C2          0.2189   -0.4746    7.4288 C.ar      1 <0>         0.0000
      3 C3          0.5641   -0.4423    9.8197 C.ar      1 <0>         0.0000
      4 C4          2.1781    0.5960    8.3521 C.ar      1 <0>         0.0000
      5 C5          1.4099    0.2284    7.2473 C.ar      1 <0>         0.0000
      6 C6          1.7552    0.2607    9.6383 C.ar      1 <0>         0.0000
      7 C7          1.8600    0.5847    5.8768 C.2       1 <0>         0.0000
      8 C8          1.9325   -1.0133    2.6768 C.2       1 <0>         0.0000
      9 C9         -3.5032    1.0894   -2.1358 C.3       1 <0>         0.0000
     10 C10        -4.8182   -0.2133   -0.4286 C.3       1 <0>         0.0000
     11 C11         0.2195    0.8307    0.9188 C.3       1 <0>         0.0000
     12 C12        -1.0001    1.1700    0.0549 C.3       1 <0>         0.0000
     13 C13         2.3649   -0.5352    1.2935 C.3       1 <0>         0.0000
     14 C14         1.1534   -0.2750    0.3710 C.3       1 <0>         0.0000
     15 C15        -3.5917    0.6563   -0.6773 C.3       1 <0>         0.0000
     16 N1          1.6681    0.0834   -0.9557 N.3       1 <0>         0.0000
     17 N2          1.4238   -0.2520    4.8674 N.am      1 <0>         0.0000
     18 N3          1.7877    0.0290    3.5734 N.am      1 <0>         0.0000
     19 O1          2.5607    1.5803    5.7128 O.2       1 <0>         0.0000
     20 O2          1.7602   -2.2018    2.9407 O.2       1 <0>         0.0000
     21 O3          3.2186   -1.5159    0.7230 O.3       1 <0>         0.0000
     22 S1         -2.0977   -0.2515   -0.2193 S.3       1 <0>         0.0000
     23 Cl1         2.7022    0.7144   11.0020 Cl        1 <0>         0.0000
     24 H1         -1.1315   -1.3570    8.8560 H         1 <0>         0.0000
     25 H2         -0.3881   -0.7667    6.5757 H         1 <0>         0.0000
     26 H3          0.2219   -0.7106   10.8159 H         1 <0>         0.0000
     27 H4          3.1065    1.1449    8.2076 H         1 <0>         0.0000
     28 H5         -3.4475    0.2126   -2.7905 H         1 <0>         0.0000
     29 H6         -4.3868    1.6640   -2.4354 H         1 <0>         0.0000
     30 H7         -2.6138    1.7003   -2.3277 H         1 <0>         0.0000
     31 H8         -4.7827   -1.1102   -1.0571 H         1 <0>         0.0000
     32 H9         -5.7425    0.3209   -0.6752 H         1 <0>         0.0000
     33 H10        -4.8798   -0.5446    0.6143 H         1 <0>         0.0000
     34 H11        -0.1531    0.5335    1.9082 H         1 <0>         0.0000
     35 H12         0.7975    1.7493    1.0822 H         1 <0>         0.0000
     36 H13        -0.6573    1.5138   -0.9268 H         1 <0>         0.0000
     37 H14        -1.5832    1.9849    0.4933 H         1 <0>         0.0000
     38 H15         2.9484    0.3859    1.4229 H         1 <0>         0.0000
     39 H16         0.5915   -1.2082    0.2610 H         1 <0>         0.0000
     40 H17        -3.6464    1.5459   -0.0407 H         1 <0>         0.0000
     41 H18         0.8845    0.1717   -1.5934 H         1 <0>         0.0000
     42 H19         2.2416   -0.6802   -1.2969 H         1 <0>         0.0000
     43 H20         0.8460   -1.0583    5.0782 H         1 <0>         0.0000
     44 H21         1.9478    0.9869    3.2798 H         1 <0>         0.0000
     45 H22         2.7041   -2.3378    0.6655 H         1 <0>         0.0000
@<TRIPOS>BOND
     1    1    2 ar
     2    1    3 ar
     3    2    5 ar
     4    3    6 ar
     5    4    5 ar
     6    4    6 ar
     7    5    7 1
     8    6   23 1
     9    7   17 am
    10    7   19 2
    11    8   13 1
    12    8   18 am
    13    8   20 2
    14    9   15 1
    15   10   15 1
    16   11   12 1
    17   11   14 1
    18   12   22 1
    19   13   14 1
    20   13   21 1
    21   14   16 1
    22   15   22 1
    23   17   18 1
    24    1   24 1
    25    2   25 1
    26    3   26 1
    27    4   27 1
    28    9   28 1
    29    9   29 1
    30    9   30 1
    31   10   31 1
    32   10   32 1
    33   10   33 1
    34   11   34 1
    35   11   35 1
    36   12   36 1
    37   12   37 1
    38   13   38 1
    39   14   39 1
    40   15   40 1
    41   16   41 1
    42   16   42 1
    43   17   43 1
    44   18   44 1
    45   21   45 1
@<TRIPOS>MOLECULE
LIGAND
   45    45     0     0     0
SMALL
NO_CHARGES

@<TRIPOS>ATOM
      1 C1         -0.9982   -4.7984    7.0345 C.ar      1 <0>         0.0000
      2 C2         -0.5646   -4.1991    5.8520 C.ar      1 <0>         0.0000
      3 C3         -1.8801   -4.1214    7.8770 C.ar      1 <0>         0.0000
      4 C4         -1.8946   -2.2457    6.3543 C.ar      1 <0>         0.0000
      5 C5         -1.0128   -2.9227    5.5119 C.ar      1 <0>         0.0000
      6 C6         -2.3282   -2.8450    7.5369 C.ar      1 <0>         0.0000
      7 C7         -0.5498   -2.2848    4.2523 C.2       1 <0>         0.0000
      8 C8          1.9325   -1.0133    2.6768 C.2       1 <0>         0.0000
      9 C9         -2.8396    0.6809   -2.6742 C.3       1 <0>         0.0000
     10 C10        -4.6560   -0.1960   -1.1670 C.3       1 <0>         0.0000
     11 C11         0.2195    0.8307    0.9188 C.3       1 <0>         0.0000
     12 C12        -1.0001    1.1700    0.0549 C.3       1 <0>         0.0000
     13 C13         2.3649   -0.5352    1.2935 C.3       1 <0>         0.0000
     14 C14         1.1534   -0.2750    0.3710 C.3       1 <0>         0.0000
     15 C15        -3.3416    0.5718   -1.2395 C.3       1 <0>         0.0000
     16 N1          1.6681    0.0834   -0.9557 N.3       1 <0>         0.0000
     17 N2          0.6851   -2.6985    3.7909 N.am      1 <0>         0.0000
     18 N3          1.1665   -2.1628    2.6216 N.am      1 <0>         0.0000
     19 O1         -1.2703   -1.4609    3.6944 O.2       1 <0>         0.0000
     20 O2          2.2299   -0.4108    3.7066 O.2       1 <0>         0.0000
     21 O3          3.2186   -1.5159    0.7230 O.3       1 <0>         0.0000
     22 S1         -2.0977   -0.2515   -0.2193 S.3       1 <0>         0.0000
     23 Cl1        -3.4168   -2.0104    8.5766 Cl        1 <0>         0.0000
     24 H1         -0.6495   -5.7923    7.2990 H         1 <0>         0.0000
     25 H2          0.1227   -4.7366    5.2037 H         1 <0>         0.0000
     26 H3         -2.2094   -4.6010    8.7951 H         1 <0>         0.0000
     27 H4         -2.2430   -1.2503    6.0862 H         1 <0>         0.0000
     28 H5         -2.6847   -0.3167   -3.1002 H         1 <0>         0.0000
     29 H6         -3.5648    1.1984   -3.3121 H         1 <0>         0.0000
     30 H7         -1.8850    1.2160   -2.7338 H         1 <0>         0.0000
     31 H8         -4.5291   -1.2071   -1.5698 H         1 <0>         0.0000
     32 H9         -5.4375    0.2943   -1.7580 H         1 <0>         0.0000
     33 H10        -5.0153   -0.2952   -0.1363 H         1 <0>         0.0000
     34 H11        -0.1531    0.5335    1.9082 H         1 <0>         0.0000
     35 H12         0.7975    1.7493    1.0822 H         1 <0>         0.0000
     36 H13        -0.6573    1.5138   -0.9268 H         1 <0>         0.0000
     37 H14        -1.5832    1.9849    0.4933 H         1 <0>         0.0000
     38 H15         2.9484    0.3859    1.4229 H         1 <0>         0.0000
     39 H16         0.5915   -1.2082    0.2610 H         1 <0>         0.0000
     40 H17        -3.4899    1.5778   -0.8328 H         1 <0>         0.0000
     41 H18         0.8845    0.1717   -1.5934 H         1 <0>         0.0000
     42 H19         2.2416   -0.6802   -1.2969 H         1 <0>         0.0000
     43 H20         1.2257   -3.3847    4.3060 H         1 <0>         0.0000
     44 H21         0.9630   -2.6038    1.7309 H         1 <0>         0.0000
     45 H22         2.7041   -2.3378    0.6655 H         1 <0>         0.0000
@<TRIPOS>BOND
     1    1    2 ar
     2    1    3 ar
     3    2    5 ar
     4    3    6 ar
     5    4    5 ar
     6    4    6 ar
     7    5    7 1
     8    6   23 1
     9    7   17 am
    10    7   19 2
    11    8   13 1
    12    8   18 am
    13    8   20 2
    14    9   15 1
    15   10   15 1
    16   11   12 1
    17   11   14 1
    18   12   22 1
    19   13   14 1
    20   13   21 1
    21   14   16 1
    22   15   22 1
    23   17   18 1
    24    1   24 1
    25    2   25 1
    26    3   26 1
    27    4   27 1
    28    9   28 1
    29    9   29 1
    30    9   30 1
    31   10   31 1
    32   10   32 1
    33   10   33 1
    34   11   34 1
    35   11   35 1
    36   12   36 1
    37   12   37 1
    38   13   38 1
    39   14   39 1
    40   15   40 1
    41   16   41 1
    42   16   42 1
    43   17   43 1
    44   18   44 1
    45   21   45 1
@<TRIPOS>MOLECULE
LIGAND
   45    45     0     0     0
SMALL
NO_CHARGES

@<TRIPOS>ATOM
      1 C1         -0.4443   -1.6789    8.4406 C.ar      1 <0>         0.0000
      2 C2          0.0752   -1.3786    7.1814 C.ar      1 <0>         0.0000
      3 C3         -0.0644   -0.9236    9.5500 C.ar      1 <0>         0.0000
      4 C4          1.3546    0.4323    8.1411 C.ar      1 <0>         0.0000
      5 C5          0.9746   -0.3231    7.0316 C.ar      1 <0>         0.0000
      6 C6          0.8350    0.1320    9.4003 C.ar      1 <0>         0.0000
      7 C7          1.5280   -0.0043    5.6900 C.2       1 <0>         0.0000
      8 C8          1.9325   -1.0133    2.6768 C.2       1 <0>         0.0000
      9 C9          2.7221    4.6042   -2.2190 C.3       1 <0>         0.0000
     10 C10         2.5092    5.3544    0.1752 C.3       1 <0>         0.0000
     11 C11         1.5761    0.1765   -1.0474 C.3       1 <0>         0.0000
     12 C12         2.3784    1.4800   -1.1273 C.3       1 <0>         0.0000
     13 C13         2.3649   -0.5352    1.2935 C.3       1 <0>         0.0000
     14 C14         1.1534   -0.2750    0.3710 C.3       1 <0>         0.0000
     15 C15         2.7418    4.1721   -0.7577 C.3       1 <0>         0.0000
     16 N1          0.3597   -1.5080    0.3138 N.3       1 <0>         0.0000
     17 N2          0.7320   -0.3536    4.6161 N.am      1 <0>         0.0000
     18 N3          1.1743   -0.0714    3.3469 N.am      1 <0>         0.0000
     19 O1          2.6215    0.5492    5.6056 O.2       1 <0>         0.0000
     20 O2          2.2555   -2.1109    3.1269 O.2       1 <0>         0.0000
     21 O3          3.2186   -1.5159    0.7230 O.3       1 <0>         0.0000
     22 S1          1.4741    2.9151   -0.4766 S.3       1 <0>         0.0000
     23 Cl1         1.3030    1.0639   10.7696 Cl        1 <0>         0.0000
     24 H1         -1.1448   -2.5006    8.5569 H         1 <0>         0.0000
     25 H2         -0.2283   -1.9745    6.3244 H         1 <0>         0.0000
     26 H3         -0.4775   -1.1693   10.5250 H         1 <0>         0.0000
     27 H4          2.0560    1.2555    8.0212 H         1 <0>         0.0000
     28 H5          1.7574    5.0604   -2.4680 H         1 <0>         0.0000
     29 H6          3.4979    5.3502   -2.4247 H         1 <0>         0.0000
     30 H7          2.8703    3.7569   -2.8981 H         1 <0>         0.0000
     31 H8          1.5412    5.8221   -0.0370 H         1 <0>         0.0000
     32 H9          3.2784    6.1235    0.0438 H         1 <0>         0.0000
     33 H10         2.5035    5.0496    1.2280 H         1 <0>         0.0000
     34 H11         2.1843   -0.6108   -1.5125 H         1 <0>         0.0000
     35 H12         0.6847    0.2765   -1.6798 H         1 <0>         0.0000
     36 H13         2.6151    1.6893   -2.1758 H         1 <0>         0.0000
     37 H14         3.3304    1.3937   -0.5957 H         1 <0>         0.0000
     38 H15         2.9484    0.3859    1.4229 H         1 <0>         0.0000
     39 H16         0.5249    0.4957    0.8291 H         1 <0>         0.0000
     40 H17         3.7127    3.7195   -0.5296 H         1 <0>         0.0000
     41 H18        -0.4842   -1.3249   -0.2178 H         1 <0>         0.0000
     42 H19         0.0690   -1.7492    1.2550 H         1 <0>         0.0000
     43 H20        -0.1619   -0.8097    4.7623 H         1 <0>         0.0000
     44 H21         0.9480    0.8148    2.9078 H         1 <0>         0.0000
     45 H22         2.7041   -2.3378    0.6655 H         1 <0>         0.0000
@<TRIPOS>BOND
     1    1    2 ar
     2    1    3 ar
     3    2    5 ar
     4    3    6 ar
     5    4    5 ar
     6    4    6 ar
     7    5    7 1
     8    6   23 1
     9    7   17 am
    10    7   19 2
    11    8   13 1
    12    8   18 am
    13    8   20 2
    14    9   15 1
    15   10   15 1
    16   11   12 1
    17   11   14 1
    18   12   22 1
    19   13   14 1
    20   13   21 1
    21   14   16 1
    22   15   22 1
    23   17   18 1
    24    1   24 1
    25    2   25 1
    26    3   26 1
    27    4   27 1
    28    9   28 1
    29    9   29 1
    30    9   30 1
    31   10   31 1
    32   10   32 1
    33   10   33 1
    34   11   34 1
    35   11   35 1
    36   12   36 1
    37   12   37 1
    38   13   38 1
    39   14   39 1
    40   15   40 1
    41   16   41 1
    42   16   42 1
    43   17   43 1
    44   18   44 1
    45   21   45 1
@<TRIPOS>MOLECULE
LIGAND
   45    45     0     0     0
SMALL
NO_CHARGES

@<TRIPOS>ATOM
      1 C1          3.3047   -0.8664    9.7081 C.ar      1 <0>         0.0000
      2 C2          3.6057   -0.4258    8.4194 C.ar      1 <0>         0.0000
      3 C3          2.1622   -1.6344    9.9335 C.ar      1 <0>         0.0000
      4 C4          1.6219   -1.5209    7.5815 C.ar      1 <0>         0.0000
      5 C5          2.7643   -0.7530    7.3561 C.ar      1 <0>         0.0000
      6 C6          1.3208   -1.9616    8.8702 C.ar      1 <0>         0.0000
      7 C7          3.0854   -0.2826    5.9837 C.2       1 <0>         0.0000
      8 C8          1.9325   -1.0133    2.6768 C.2       1 <0>         0.0000
      9 C9         -4.1299   -0.4675   -2.0276 C.3       1 <0>         0.0000
     10 C10        -4.2566    1.4118   -0.3565 C.3       1 <0>         0.0000
     11 C11         0.2195    0.8307    0.9188 C.3       1 <0>         0.0000
     12 C12        -1.0001    1.1700    0.0549 C.3       1 <0>         0.0000
     13 C13         2.3649   -0.5352    1.2935 C.3       1 <0>         0.0000
     14 C14         1.1534   -0.2750    0.3710 C.3       1 <0>         0.0000
     15 C15        -3.3416    0.5718   -1.2395 C.3       1 <0>         0.0000
     16 N1          1.6681    0.0834   -0.9557 N.3       1 <0>         0.0000
     17 N2          2.6023   -1.0670    4.9540 N.am      1 <0>         0.0000
     18 N3          2.8469   -0.6810    3.6590 N.am      1 <0>         0.0000
     19 O1          3.7293    0.7533    5.8374 O.2       1 <0>         0.0000
     20 O2          0.8915   -1.6405    2.8632 O.2       1 <0>         0.0000
     21 O3          3.2186   -1.5159    0.7230 O.3       1 <0>         0.0000
     22 S1         -2.0977   -0.2515   -0.2193 S.3       1 <0>         0.0000
     23 Cl1        -0.0884   -2.9097    9.1490 Cl        1 <0>         0.0000
     24 H1          3.9601   -0.6118   10.5358 H         1 <0>         0.0000
     25 H2          4.4987    0.1721    8.2563 H         1 <0>         0.0000
     26 H3          1.9405   -1.9706   10.9431 H         1 <0>         0.0000
     27 H4          0.9676   -1.7751    6.7500 H         1 <0>         0.0000
     28 H5         -4.6663   -1.1363   -1.3453 H         1 <0>         0.0000
     29 H6         -4.8772    0.0053   -2.6747 H         1 <0>         0.0000
     30 H7         -3.4774   -1.0886   -2.6519 H         1 <0>         0.0000
     31 H8         -4.7949    0.7719    0.3515 H         1 <0>         0.0000
     32 H9         -5.0077    1.9429   -0.9517 H         1 <0>         0.0000
     33 H10        -3.6957    2.1500    0.2280 H         1 <0>         0.0000
     34 H11        -0.1531    0.5335    1.9082 H         1 <0>         0.0000
     35 H12         0.7975    1.7493    1.0822 H         1 <0>         0.0000
     36 H13        -0.6573    1.5138   -0.9268 H         1 <0>         0.0000
     37 H14        -1.5832    1.9849    0.4933 H         1 <0>         0.0000
     38 H15         2.9484    0.3859    1.4229 H         1 <0>         0.0000
     39 H16         0.5915   -1.2082    0.2610 H         1 <0>         0.0000
     40 H17        -2.8138    1.2291   -1.9386 H         1 <0>         0.0000
     41 H18         0.8845    0.1717   -1.5934 H         1 <0>         0.0000
     42 H19         2.2416   -0.6802   -1.2969 H         1 <0>         0.0000
     43 H20         2.0769   -1.9119    5.1509 H         1 <0>         0.0000
     44 H21         3.6858   -0.1599    3.4266 H         1 <0>         0.0000
     45 H22         2.7041   -2.3378    0.6655 H         1 <0>         0.0000
@<TRIPOS>BOND
     1    1    2 ar
     2    1    3 ar
     3    2    5 ar
     4    3    6 ar
     5    4    5 ar
     6    4    6 ar
     7    5    7 1
     8    6   23 1
     9    7   17 am
    10    7   19 2
    11    8   13 1
    12    8   18 am
    13    8   20 2
    14    9   15 1
    15   10   15 1
    16   11   12 1
    17   11   14 1
    18   12   22 1
    19   13   14 1
    20   13   21 1
    21   14   16 1
    22   15   22 1
    23   17   18 1
    24    1   24 1
    25    2   25 1
    26    3   26 1
    27    4   27 1
    28    9   28 1
    29    9   29 1
    30    9   30 1
    31   10   31 1
    32   10   32 1
    33   10   33 1
    34   11   34 1
    35   11   35 1
    36   12   36 1
    37   12   37 1
    38   13   38 1
    39   14   39 1
    40   15   40 1
    41   16   41 1
    42   16   42 1
    43   17   43 1
    44   18   44 1
    45   21   45 1
@<TRIPOS>MOLECULE
LIGAND
   45    45     0     0     0
SMALL
NO_CHARGES

@<TRIPOS>ATOM
      1 C1          2.2867   -1.8006    9.3387 C.ar      1 <0>         0.0000
      2 C2          2.7263   -1.5405    8.0408 C.ar      1 <0>         0.0000
      3 C3          1.0666   -1.2866    9.7779 C.ar      1 <0>         0.0000
      4 C4          0.7260   -0.2522    7.6213 C.ar      1 <0>         0.0000
      5 C5          1.9460   -0.7663    7.1821 C.ar      1 <0>         0.0000
      6 C6          0.2863   -0.5124    8.9192 C.ar      1 <0>         0.0000
      7 C7          2.4155   -0.4891    5.7998 C.2       1 <0>         0.0000
      8 C8          1.9325   -1.0133    2.6768 C.2       1 <0>         0.0000
      9 C9         -4.5752    3.1779    0.0331 C.3       1 <0>         0.0000
     10 C10        -2.7668    3.3107   -1.7140 C.3       1 <0>         0.0000
     11 C11         0.2195    0.8307    0.9188 C.3       1 <0>         0.0000
     12 C12        -1.0001    1.1700    0.0549 C.3       1 <0>         0.0000
     13 C13         2.3649   -0.5352    1.2935 C.3       1 <0>         0.0000
     14 C14         1.1534   -0.2750    0.3710 C.3       1 <0>         0.0000
     15 C15        -3.3066    2.5373   -0.5169 C.3       1 <0>         0.0000
     16 N1          1.6681    0.0834   -0.9557 N.3       1 <0>         0.0000
     17 N2          1.4238   -0.2520    4.8674 N.am      1 <0>         0.0000
     18 N3          1.7877    0.0290    3.5734 N.am      1 <0>         0.0000
     19 O1          3.6213   -0.4699    5.5658 O.2       1 <0>         0.0000
     20 O2          1.7602   -2.2018    2.9407 O.2       1 <0>         0.0000
     21 O3          3.2186   -1.5159    0.7230 O.3       1 <0>         0.0000
     22 S1         -2.0492    2.4644    0.7791 S.3       1 <0>         0.0000
     23 Cl1        -1.2194    0.1212    9.4617 Cl        1 <0>         0.0000
     24 H1          2.8942   -2.4037   10.0070 H         1 <0>         0.0000
     25 H2          3.6789   -1.9464    7.7100 H         1 <0>         0.0000
     26 H3          0.7369   -1.4976   10.7919 H         1 <0>         0.0000
     27 H4          0.1191    0.3510    6.9490 H         1 <0>         0.0000
     28 H5         -4.3764    4.2092    0.3452 H         1 <0>         0.0000
     29 H6         -5.3650    3.2137   -0.7256 H         1 <0>         0.0000
     30 H7         -4.9604    2.6385    0.9059 H         1 <0>         0.0000
     31 H8         -2.5401    4.3441   -1.4288 H         1 <0>         0.0000
     32 H9         -3.5004    3.3505   -2.5268 H         1 <0>         0.0000
     33 H10        -1.8438    2.8672   -2.1048 H         1 <0>         0.0000
     34 H11        -0.1531    0.5335    1.9082 H         1 <0>         0.0000
     35 H12         0.7975    1.7493    1.0822 H         1 <0>         0.0000
     36 H13        -1.6176    0.2727   -0.0585 H         1 <0>         0.0000
     37 H14        -0.7009    1.4813   -0.9501 H         1 <0>         0.0000
     38 H15         2.9484    0.3859    1.4229 H         1 <0>         0.0000
     39 H16         0.5915   -1.2082    0.2610 H         1 <0>         0.0000
     40 H17        -3.5264    1.5088   -0.8227 H         1 <0>         0.0000
     41 H18         0.8845    0.1717   -1.5934 H         1 <0>         0.0000
     42 H19         2.2416   -0.6802   -1.2969 H         1 <0>         0.0000
     43 H20         0.4458   -0.2847    5.1337 H         1 <0>         0.0000
     44 H21         1.9478    0.9869    3.2798 H         1 <0>         0.0000
     45 H22         2.7041   -2.3378    0.6655 H         1 <0>         0.0000
@<TRIPOS>BOND
     1    1    2 ar
     2    1    3 ar
     3    2    5 ar
     4    3    6 ar
     5    4    5 ar
     6    4    6 ar
     7    5    7 1
     8    6   23 1
     9    7   17 am
    10    7   19 2
    11    8   13 1
    12    8   18 am
    13    8   20 2
    14    9   15 1
    15   10   15 1
    16   11   12 1
    17   11   14 1
    18   12   22 1
    19   13   14 1
    20   13   21 1
    21   14   16 1
    22   15   22 1
    23   17   18 1
    24    1   24 1
    25    2   25 1
    26    3   26 1
    27    4   27 1
    28    9   28 1
    29    9   29 1
    30    9   30 1
    31   10   31 1
    32   10   32 1
    33   10   33 1
    34   11   34 1
    35   11   35 1
    36   12   36 1
    37   12   37 1
    38   13   38 1
    39   14   39 1
    40   15   40 1
    41   16   41 1
    42   16   42 1
    43   17   43 1
    44   18   44 1
    45   21   45 1
@<TRIPOS>MOLECULE
LIGAND
   45    45     0     0     0
SMALL
NO_CHARGES

@<TRIPOS>ATOM
      1 C1          0.3098   -0.7270    9.1684 C.ar      1 <0>         0.0000
      2 C2          0.5387   -0.2630    7.8731 C.ar      1 <0>         0.0000
      3 C3          1.1930   -1.6369    9.7496 C.ar      1 <0>         0.0000
      4 C4          2.5339   -1.6190    7.7400 C.ar      1 <0>         0.0000
      5 C5          1.6507   -0.7090    7.1588 C.ar      1 <0>         0.0000
      6 C6          2.3050   -2.0829    9.0354 C.ar      1 <0>         0.0000
      7 C7          1.8934   -0.2148    5.7787 C.2       1 <0>         0.0000
      8 C8          1.9325   -1.0133    2.6768 C.2       1 <0>         0.0000
      9 C9         -1.3566    4.2423   -1.1718 C.3       1 <0>         0.0000
     10 C10        -1.3823    5.0762    1.2040 C.3       1 <0>         0.0000
     11 C11         0.2195    0.8307    0.9188 C.3       1 <0>         0.0000
     12 C12        -1.0001    1.1700    0.0549 C.3       1 <0>         0.0000
     13 C13         2.3649   -0.5352    1.2935 C.3       1 <0>         0.0000
     14 C14         1.1534   -0.2750    0.3710 C.3       1 <0>         0.0000
     15 C15        -1.0699    3.9009    0.2855 C.3       1 <0>         0.0000
     16 N1          1.6681    0.0834   -0.9557 N.3       1 <0>         0.0000
     17 N2          2.6023   -1.0670    4.9540 N.am      1 <0>         0.0000
     18 N3          2.8469   -0.6810    3.6590 N.am      1 <0>         0.0000
     19 O1          1.4534    0.8829    5.4461 O.2       1 <0>         0.0000
     20 O2          0.8915   -1.6405    2.8632 O.2       1 <0>         0.0000
     21 O3          3.2186   -1.5159    0.7230 O.3       1 <0>         0.0000
     22 S1         -2.0492    2.4644    0.7791 S.3       1 <0>         0.0000
     23 Cl1         3.3947   -3.2053    9.7533 Cl        1 <0>         0.0000
     24 H1         -0.5558   -0.3793    9.7245 H         1 <0>         0.0000
     25 H2         -0.1567    0.4458    7.4309 H         1 <0>         0.0000
     26 H3          1.0018   -1.9896   10.7598 H         1 <0>         0.0000
     27 H4          3.4009   -1.9648    7.1806 H         1 <0>         0.0000
     28 H5         -2.4105    4.5137   -1.2989 H         1 <0>         0.0000
     29 H6         -0.7576    5.0967   -1.5064 H         1 <0>         0.0000
     30 H7         -1.1520    3.3963   -1.8378 H         1 <0>         0.0000
     31 H8         -2.4367    5.3604    1.1134 H         1 <0>         0.0000
     32 H9         -0.7841    5.9563    0.9431 H         1 <0>         0.0000
     33 H10        -1.1964    4.8333    2.2564 H         1 <0>         0.0000
     34 H11        -0.1531    0.5335    1.9082 H         1 <0>         0.0000
     35 H12         0.7975    1.7493    1.0822 H         1 <0>         0.0000
     36 H13        -1.6176    0.2727   -0.0585 H         1 <0>         0.0000
     37 H14        -0.7009    1.4813   -0.9501 H         1 <0>         0.0000
     38 H15         2.9484    0.3859    1.4229 H         1 <0>         0.0000
     39 H16         0.5915   -1.2082    0.2610 H         1 <0>         0.0000
     40 H17        -0.0132    3.6330    0.3910 H         1 <0>         0.0000
     41 H18         0.8845    0.1717   -1.5934 H         1 <0>         0.0000
     42 H19         2.2416   -0.6802   -1.2969 H         1 <0>         0.0000
     43 H20         2.9356   -1.9607    5.2985 H         1 <0>         0.0000
     44 H21         3.6858   -0.1599    3.4266 H         1 <0>         0.0000
     45 H22         2.7041   -2.3378    0.6655 H         1 <0>         0.0000
@<TRIPOS>BOND
     1    1    2 ar
     2    1    3 ar
     3    2    5 ar
     4    3    6 ar
     5    4    5 ar
     6    4    6 ar
     7    5    7 1
     8    6   23 1
     9    7   17 am
    10    7   19 2
    11    8   13 1
    12    8   18 am
    13    8   20 2
    14    9   15 1
    15   10   15 1
    16   11   12 1
    17   11   14 1
    18   12   22 1
    19   13   14 1
    20   13   21 1
    21   14   16 1
    22   15   22 1
    23   17   18 1
    24    1   24 1
    25    2   25 1
    26    3   26 1
    27    4   27 1
    28    9   28 1
    29    9   29 1
    30    9   30 1
    31   10   31 1
    32   10   32 1
    33   10   33 1
    34   11   34 1
    35   11   35 1
    36   12   36 1
    37   12   37 1
    38   13   38 1
    39   14   39 1
    40   15   40 1
    41   16   41 1
    42   16   42 1
    43   17   43 1
    44   18   44 1
    45   21   45 1
@<TRIPOS>MOLECULE
LIGAND
   45    45     0     0     0
SMALL
NO_CHARGES

@<TRIPOS>ATOM
      1 C1          0.8357    0.1354    9.3996 C.ar      1 <0>         0.0000
      2 C2          1.3551    0.4336    8.1400 C.ar      1 <0>         0.0000
      3 C3         -0.0643   -0.9196    9.5510 C.ar      1 <0>         0.0000
      4 C4          0.0746   -1.3780    7.1830 C.ar      1 <0>         0.0000
      5 C5          0.9746   -0.3231    7.0316 C.ar      1 <0>         0.0000
      6 C6         -0.4448   -1.6762    8.4427 C.ar      1 <0>         0.0000
      7 C7          1.5280   -0.0043    5.6900 C.2       1 <0>         0.0000
      8 C8          1.9325   -1.0133    2.6768 C.2       1 <0>         0.0000
      9 C9          2.1016    5.5550   -0.7655 C.3       1 <0>         0.0000
     10 C10         3.8195    4.0640    0.3143 C.3       1 <0>         0.0000
     11 C11         1.5761    0.1765   -1.0474 C.3       1 <0>         0.0000
     12 C12         2.3784    1.4800   -1.1273 C.3       1 <0>         0.0000
     13 C13         2.3649   -0.5352    1.2935 C.3       1 <0>         0.0000
     14 C14         1.1534   -0.2750    0.3710 C.3       1 <0>         0.0000
     15 C15         2.7418    4.1721   -0.7577 C.3       1 <0>         0.0000
     16 N1          0.3597   -1.5080    0.3138 N.3       1 <0>         0.0000
     17 N2          0.7320   -0.3536    4.6161 N.am      1 <0>         0.0000
     18 N3          1.1743   -0.0714    3.3469 N.am      1 <0>         0.0000
     19 O1          2.6215    0.5492    5.6056 O.2       1 <0>         0.0000
     20 O2          2.2555   -2.1109    3.1269 O.2       1 <0>         0.0000
     21 O3          3.2186   -1.5159    0.7230 O.3       1 <0>         0.0000
     22 S1          1.4741    2.9151   -0.4766 S.3       1 <0>         0.0000
     23 Cl1        -1.5550   -2.9781    8.6304 Cl        1 <0>         0.0000
     24 H1          1.1323    0.7244   10.2624 H         1 <0>         0.0000
     25 H2          2.0556    1.2581    8.0346 H         1 <0>         0.0000
     26 H3         -0.4608   -1.1402   10.5387 H         1 <0>         0.0000
     27 H4         -0.2200   -1.9669    6.3167 H         1 <0>         0.0000
     28 H5          1.6476    5.7697    0.2083 H         1 <0>         0.0000
     29 H6          2.8444    6.3372   -0.9581 H         1 <0>         0.0000
     30 H7          1.3123    5.6360   -1.5215 H         1 <0>         0.0000
     31 H8          3.3919    4.2558    1.3048 H         1 <0>         0.0000
     32 H9          4.6156    4.7998    0.1551 H         1 <0>         0.0000
     33 H10         4.2729    3.0665    0.3392 H         1 <0>         0.0000
     34 H11         2.1843   -0.6108   -1.5125 H         1 <0>         0.0000
     35 H12         0.6847    0.2765   -1.6798 H         1 <0>         0.0000
     36 H13         2.6151    1.6893   -2.1758 H         1 <0>         0.0000
     37 H14         3.3304    1.3937   -0.5957 H         1 <0>         0.0000
     38 H15         2.9484    0.3859    1.4229 H         1 <0>         0.0000
     39 H16         0.5249    0.4957    0.8291 H         1 <0>         0.0000
     40 H17         3.1890    3.9773   -1.7383 H         1 <0>         0.0000
     41 H18        -0.4842   -1.3249   -0.2178 H         1 <0>         0.0000
     42 H19         0.0690   -1.7492    1.2550 H         1 <0>         0.0000
     43 H20        -0.1619   -0.8097    4.7623 H         1 <0>         0.0000
     44 H21         0.9480    0.8148    2.9078 H         1 <0>         0.0000
     45 H22         2.7041   -2.3378    0.6655 H         1 <0>         0.0000
@<TRIPOS>BOND
     1    1    2 ar
     2    1    3 ar
     3    2    5 ar
     4    3    6 ar
     5    4    5 ar
     6    4    6 ar
     7    5    7 1
     8    6   23 1
     9    7   17 am
    10    7   19 2
    11    8   13 1
    12    8   18 am
    13    8   20 2
    14    9   15 1
    15   10   15 1
    16   11   12 1
    17   11   14 1
    18   12   22 1
    19   13   14 1
    20   13   21 1
    21   14   16 1
    22   15   22 1
    23   17   18 1
    24    1   24 1
    25    2   25 1
    26    3   26 1
    27    4   27 1
    28    9   28 1
    29    9   29 1
    30    9   30 1
    31   10   31 1
    32   10   32 1
    33   10   33 1
    34   11   34 1
    35   11   35 1
    36   12   36 1
    37   12   37 1
    38   13   38 1
    39   14   39 1
    40   15   40 1
    41   16   41 1
    42   16   42 1
    43   17   43 1
    44   18   44 1
    45   21   45 1
@<TRIPOS>MOLECULE
LIGAND
   45    45     0     0     0
SMALL
NO_CHARGES

@<TRIPOS>ATOM
      1 C1          1.3691   -2.5452    8.7036 C.ar      1 <0>         0.0000
      2 C2          1.5963   -2.0804    7.4082 C.ar      1 <0>         0.0000
      3 C3          1.1963   -1.6386    9.7496 C.ar      1 <0>         0.0000
      4 C4          1.4779    0.1975    8.2048 C.ar      1 <0>         0.0000
      5 C5          1.6507   -0.7090    7.1588 C.ar      1 <0>         0.0000
      6 C6          1.2507   -0.2673    9.5002 C.ar      1 <0>         0.0000
      7 C7          1.8934   -0.2148    5.7787 C.2       1 <0>         0.0000
      8 C8          1.9325   -1.0133    2.6768 C.2       1 <0>         0.0000
      9 C9         -4.2967    1.3927   -0.3375 C.3       1 <0>         0.0000
     10 C10        -4.0071    3.8901   -0.4781 C.3       1 <0>         0.0000
     11 C11         0.2195    0.8307    0.9188 C.3       1 <0>         0.0000
     12 C12        -1.0001    1.1700    0.0549 C.3       1 <0>         0.0000
     13 C13         2.3649   -0.5352    1.2935 C.3       1 <0>         0.0000
     14 C14         1.1534   -0.2750    0.3710 C.3       1 <0>         0.0000
     15 C15        -3.3066    2.5373   -0.5169 C.3       1 <0>         0.0000
     16 N1          1.6681    0.0834   -0.9557 N.3       1 <0>         0.0000
     17 N2          2.6023   -1.0670    4.9540 N.am      1 <0>         0.0000
     18 N3          2.8469   -0.6810    3.6590 N.am      1 <0>         0.0000
     19 O1          1.4534    0.8829    5.4461 O.2       1 <0>         0.0000
     20 O2          0.8915   -1.6405    2.8632 O.2       1 <0>         0.0000
     21 O3          3.2186   -1.5159    0.7230 O.3       1 <0>         0.0000
     22 S1         -2.0492    2.4644    0.7791 S.3       1 <0>         0.0000
     23 Cl1         1.0368    0.8507   10.7913 Cl        1 <0>         0.0000
     24 H1          1.3265   -3.6129    8.8975 H         1 <0>         0.0000
     25 H2          1.7296   -2.7965    6.6014 H         1 <0>         0.0000
     26 H3          1.0200   -2.0156   10.7537 H         1 <0>         0.0000
     27 H4          1.5203    1.2667    8.0072 H         1 <0>         0.0000
     28 H5         -4.8186    1.4878    0.6213 H         1 <0>         0.0000
     29 H6         -5.0586    1.3975   -1.1249 H         1 <0>         0.0000
     30 H7         -3.7990    0.4164   -0.3457 H         1 <0>         0.0000
     31 H8         -4.5245    4.0235    0.4785 H         1 <0>         0.0000
     32 H9         -4.7599    3.9723   -1.2700 H         1 <0>         0.0000
     33 H10        -3.2998    4.7201   -0.5881 H         1 <0>         0.0000
     34 H11        -0.1531    0.5335    1.9082 H         1 <0>         0.0000
     35 H12         0.7975    1.7493    1.0822 H         1 <0>         0.0000
     36 H13        -1.6176    0.2727   -0.0585 H         1 <0>         0.0000
     37 H14        -0.7009    1.4813   -0.9501 H         1 <0>         0.0000
     38 H15         2.9484    0.3859    1.4229 H         1 <0>         0.0000
     39 H16         0.5915   -1.2082    0.2610 H         1 <0>         0.0000
     40 H17        -2.7965    2.4239   -1.4795 H         1 <0>         0.0000
     41 H18         0.8845    0.1717   -1.5934 H         1 <0>         0.0000
     42 H19         2.2416   -0.6802   -1.2969 H         1 <0>         0.0000
     43 H20         2.9356   -1.9607    5.2985 H         1 <0>         0.0000
     44 H21         3.6858   -0.1599    3.4266 H         1 <0>         0.0000
     45 H22         2.7041   -2.3378    0.6655 H         1 <0>         0.0000
@<TRIPOS>BOND
     1    1    2 ar
     2    1    3 ar
     3    2    5 ar
     4    3    6 ar
     5    4    5 ar
     6    4    6 ar
     7    5    7 1
     8    6   23 1
     9    7   17 am
    10    7   19 2
    11    8   13 1
    12    8   18 am
    13    8   20 2
    14    9   15 1
    15   10   15 1
    16   11   12 1
    17   11   14 1
    18   12   22 1
    19   13   14 1
    20   13   21 1
    21   14   16 1
    22   15   22 1
    23   17   18 1
    24    1   24 1
    25    2   25 1
    26    3   26 1
    27    4   27 1
    28    9   28 1
    29    9   29 1
    30    9   30 1
    31   10   31 1
    32   10   32 1
    33   10   33 1
    34   11   34 1
    35   11   35 1
    36   12   36 1
    37   12   37 1
    38   13   38 1
    39   14   39 1
    40   15   40 1
    41   16   41 1
    42   16   42 1
    43   17   43 1
    44   18   44 1
    45   21   45 1
@<TRIPOS>MOLECULE
LIGAND
   45    45     0     0     0
SMALL
NO_CHARGES

@<TRIPOS>ATOM
      1 C1         -0.9264   -0.6930    8.4760 C.ar      1 <0>         0.0000
      2 C2         -0.4061   -0.3932    7.2170 C.ar      1 <0>         0.0000
      3 C3         -0.0659   -0.9225    9.5497 C.ar      1 <0>         0.0000
      4 C4          1.8351   -0.5526    8.1053 C.ar      1 <0>         0.0000
      5 C5          0.9746   -0.3231    7.0316 C.ar      1 <0>         0.0000
      6 C6          1.3148   -0.8524    9.3643 C.ar      1 <0>         0.0000
      7 C7          1.5280   -0.0043    5.6900 C.2       1 <0>         0.0000
      8 C8          1.9325   -1.0133    2.6768 C.2       1 <0>         0.0000
      9 C9          2.7221    4.6042   -2.2190 C.3       1 <0>         0.0000
     10 C10         2.5092    5.3544    0.1752 C.3       1 <0>         0.0000
     11 C11         1.5761    0.1765   -1.0474 C.3       1 <0>         0.0000
     12 C12         2.3784    1.4800   -1.1273 C.3       1 <0>         0.0000
     13 C13         2.3649   -0.5352    1.2935 C.3       1 <0>         0.0000
     14 C14         1.1534   -0.2750    0.3710 C.3       1 <0>         0.0000
     15 C15         2.7418    4.1721   -0.7577 C.3       1 <0>         0.0000
     16 N1          0.3597   -1.5080    0.3138 N.3       1 <0>         0.0000
     17 N2          0.7320   -0.3536    4.6161 N.am      1 <0>         0.0000
     18 N3          1.1743   -0.0714    3.3469 N.am      1 <0>         0.0000
     19 O1          2.6215    0.5492    5.6056 O.2       1 <0>         0.0000
     20 O2          2.2555   -2.1109    3.1269 O.2       1 <0>         0.0000
     21 O3          3.2186   -1.5159    0.7230 O.3       1 <0>         0.0000
     22 S1          1.4741    2.9151   -0.4766 S.3       1 <0>         0.0000
     23 Cl1         2.3759   -1.1353   10.6896 Cl        1 <0>         0.0000
     24 H1         -2.0014   -0.7472    8.6202 H         1 <0>         0.0000
     25 H2         -1.0867   -0.2164    6.3881 H         1 <0>         0.0000
     26 H3         -0.4859   -1.1551   10.5249 H         1 <0>         0.0000
     27 H4          2.9117   -0.4967    7.9578 H         1 <0>         0.0000
     28 H5          1.7574    5.0604   -2.4680 H         1 <0>         0.0000
     29 H6          3.4979    5.3502   -2.4247 H         1 <0>         0.0000
     30 H7          2.8703    3.7569   -2.8981 H         1 <0>         0.0000
     31 H8          1.5412    5.8221   -0.0370 H         1 <0>         0.0000
     32 H9          3.2784    6.1235    0.0438 H         1 <0>         0.0000
     33 H10         2.5035    5.0496    1.2280 H         1 <0>         0.0000
     34 H11         2.1843   -0.6108   -1.5125 H         1 <0>         0.0000
     35 H12         0.6847    0.2765   -1.6798 H         1 <0>         0.0000
     36 H13         2.6151    1.6893   -2.1758 H         1 <0>         0.0000
     37 H14         3.3304    1.3937   -0.5957 H         1 <0>         0.0000
     38 H15         2.9484    0.3859    1.4229 H         1 <0>         0.0000
     39 H16         0.5249    0.4957    0.8291 H         1 <0>         0.0000
     40 H17         3.7127    3.7195   -0.5296 H         1 <0>         0.0000
     41 H18        -0.4842   -1.3249   -0.2178 H         1 <0>         0.0000
     42 H19         0.0690   -1.7492    1.2550 H         1 <0>         0.0000
     43 H20        -0.1619   -0.8097    4.7623 H         1 <0>         0.0000
     44 H21         0.9480    0.8148    2.9078 H         1 <0>         0.0000
     45 H22         2.7041   -2.3378    0.6655 H         1 <0>         0.0000
@<TRIPOS>BOND
     1    1    2 ar
     2    1    3 ar
     3    2    5 ar
     4    3    6 ar
     5    4    5 ar
     6    4    6 ar
     7    5    7 1
     8    6   23 1
     9    7   17 am
    10    7   19 2
    11    8   13 1
    12    8   18 am
    13    8   20 2
    14    9   15 1
    15   10   15 1
    16   11   12 1
    17   11   14 1
    18   12   22 1
    19   13   14 1
    20   13   21 1
    21   14   16 1
    22   15   22 1
    23   17   18 1
    24    1   24 1
    25    2   25 1
    26    3   26 1
    27    4   27 1
    28    9   28 1
    29    9   29 1
    30    9   30 1
    31   10   31 1
    32   10   32 1
    33   10   33 1
    34   11   34 1
    35   11   35 1
    36   12   36 1
    37   12   37 1
    38   13   38 1
    39   14   39 1
    40   15   40 1
    41   16   41 1
    42   16   42 1
    43   17   43 1
    44   18   44 1
    45   21   45 1
@<TRIPOS>MOLECULE
LIGAND
   45    45     0     0     0
SMALL
NO_CHARGES

@<TRIPOS>ATOM
      1 C1         -0.5153   -4.0016    7.6155 C.ar      1 <0>         0.0000
      2 C2         -0.0816   -3.4032    6.4326 C.ar      1 <0>         0.0000
      3 C3         -1.8803   -4.1197    7.8777 C.ar      1 <0>         0.0000
      4 C4         -2.3777   -3.0408    5.7741 C.ar      1 <0>         0.0000
      5 C5         -1.0128   -2.9227    5.5119 C.ar      1 <0>         0.0000
      6 C6         -2.8114   -3.6393    6.9570 C.ar      1 <0>         0.0000
      7 C7         -0.5498   -2.2848    4.2523 C.2       1 <0>         0.0000
      8 C8          1.9325   -1.0133    2.6768 C.2       1 <0>         0.0000
      9 C9          0.9492    3.5395    4.1781 C.3       1 <0>         0.0000
     10 C10        -1.5671    3.4454    4.1811 C.3       1 <0>         0.0000
     11 C11         0.2195    0.8307    0.9188 C.3       1 <0>         0.0000
     12 C12         0.8590    2.2074    1.1305 C.3       1 <0>         0.0000
     13 C13         2.3649   -0.5352    1.2935 C.3       1 <0>         0.0000
     14 C14         1.1534   -0.2750    0.3710 C.3       1 <0>         0.0000
     15 C15        -0.2901    2.9668    3.5009 C.3       1 <0>         0.0000
     16 N1          1.6681    0.0834   -0.9557 N.3       1 <0>         0.0000
     17 N2          0.6851   -2.6985    3.7909 N.am      1 <0>         0.0000
     18 N3          1.1665   -2.1628    2.6216 N.am      1 <0>         0.0000
     19 O1         -1.2703   -1.4609    3.6944 O.2       1 <0>         0.0000
     20 O2          2.2299   -0.4108    3.7066 O.2       1 <0>         0.0000
     21 O3          3.2186   -1.5159    0.7230 O.3       1 <0>         0.0000
     22 S1         -0.3102    3.4478    1.7590 S.3       1 <0>         0.0000
     23 Cl1        -4.4955   -3.7857    7.2810 Cl        1 <0>         0.0000
     24 H1          0.2098   -4.3759    8.3321 H         1 <0>         0.0000
     25 H2          0.9846   -3.3169    6.2396 H         1 <0>         0.0000
     26 H3         -2.2034   -4.5883    8.8037 H         1 <0>         0.0000
     27 H4         -3.1019   -2.6655    5.0538 H         1 <0>         0.0000
     28 H5          0.9275    4.6347    4.1481 H         1 <0>         0.0000
     29 H6          1.0005    3.2436    5.2319 H         1 <0>         0.0000
     30 H7          1.8721    3.2151    3.6839 H         1 <0>         0.0000
     31 H8         -1.6274    4.5391    4.1512 H         1 <0>         0.0000
     32 H9         -1.5938    3.1464    5.2349 H         1 <0>         0.0000
     33 H10        -2.4642    3.0528    3.6891 H         1 <0>         0.0000
     34 H11        -0.6259    0.9652    0.2307 H         1 <0>         0.0000
     35 H12        -0.2197    0.5004    1.8688 H         1 <0>         0.0000
     36 H13         1.2423    2.5738    0.1722 H         1 <0>         0.0000
     37 H14         1.7108    2.1489    1.8142 H         1 <0>         0.0000
     38 H15         2.9484    0.3859    1.4229 H         1 <0>         0.0000
     39 H16         0.5915   -1.2082    0.2610 H         1 <0>         0.0000
     40 H17        -0.2491    1.8731    3.5416 H         1 <0>         0.0000
     41 H18         0.8845    0.1717   -1.5934 H         1 <0>         0.0000
     42 H19         2.2416   -0.6802   -1.2969 H         1 <0>         0.0000
     43 H20         1.2257   -3.3847    4.3060 H         1 <0>         0.0000
     44 H21         0.9630   -2.6038    1.7309 H         1 <0>         0.0000
     45 H22         2.7041   -2.3378    0.6655 H         1 <0>         0.0000
@<TRIPOS>BOND
     1    1    2 ar
     2    1    3 ar
     3    2    5 ar
     4    3    6 ar
     5    4    5 ar
     6    4    6 ar
     7    5    7 1
     8    6   23 1
     9    7   17 am
    10    7   19 2
    11    8   13 1
    12    8   18 am
    13    8   20 2
    14    9   15 1
    15   10   15 1
    16   11   12 1
    17   11   14 1
    18   12   22 1
    19   13   14 1
    20   13   21 1
    21   14   16 1
    22   15   22 1
    23   17   18 1
    24    1   24 1
    25    2   25 1
    26    3   26 1
    27    4   27 1
    28    9   28 1
    29    9   29 1
    30    9   30 1
    31   10   31 1
    32   10   32 1
    33   10   33 1
    34   11   34 1
    35   11   35 1
    36   12   36 1
    37   12   37 1
    38   13   38 1
    39   14   39 1
    40   15   40 1
    41   16   41 1
    42   16   42 1
    43   17   43 1
    44   18   44 1
    45   21   45 1
@<TRIPOS>MOLECULE
LIGAND
   45    45     0     0     0
SMALL
NO_CHARGES

@<TRIPOS>ATOM
      1 C1          2.3084   -2.0825    9.0344 C.ar      1 <0>         0.0000
      2 C2          2.5351   -1.6185    7.7387 C.ar      1 <0>         0.0000
      3 C3          1.1971   -1.6371    9.7503 C.ar      1 <0>         0.0000
      4 C4          0.5395   -0.2636    7.8747 C.ar      1 <0>         0.0000
      5 C5          1.6507   -0.7090    7.1588 C.ar      1 <0>         0.0000
      6 C6          0.3127   -0.7276    9.1704 C.ar      1 <0>         0.0000
      7 C7          1.8934   -0.2148    5.7787 C.2       1 <0>         0.0000
      8 C8          1.9325   -1.0133    2.6768 C.2       1 <0>         0.0000
      9 C9         -0.3459    6.1254    1.2341 C.3       1 <0>         0.0000
     10 C10         1.7475    5.1698    2.2562 C.3       1 <0>         0.0000
     11 C11         0.2195    0.8307    0.9188 C.3       1 <0>         0.0000
     12 C12         0.8590    2.2074    1.1305 C.3       1 <0>         0.0000
     13 C13         2.3649   -0.5352    1.2935 C.3       1 <0>         0.0000
     14 C14         1.1534   -0.2750    0.3710 C.3       1 <0>         0.0000
     15 C15         0.6016    4.9327    1.2798 C.3       1 <0>         0.0000
     16 N1          1.6681    0.0834   -0.9557 N.3       1 <0>         0.0000
     17 N2          2.6023   -1.0670    4.9540 N.am      1 <0>         0.0000
     18 N3          2.8469   -0.6810    3.6590 N.am      1 <0>         0.0000
     19 O1          1.4534    0.8829    5.4461 O.2       1 <0>         0.0000
     20 O2          0.8915   -1.6405    2.8632 O.2       1 <0>         0.0000
     21 O3          3.2186   -1.5159    0.7230 O.3       1 <0>         0.0000
     22 S1         -0.3102    3.4478    1.7590 S.3       1 <0>         0.0000
     23 Cl1        -1.0586   -0.1788   10.0541 Cl        1 <0>         0.0000
     24 H1          2.9969   -2.7909    9.4856 H         1 <0>         0.0000
     25 H2          3.4046   -1.9729    7.1910 H         1 <0>         0.0000
     26 H3          1.0333   -2.0074   10.7590 H         1 <0>         0.0000
     27 H4         -0.1491    0.4455    7.4196 H         1 <0>         0.0000
     28 H5         -0.7677    6.3147    2.2275 H         1 <0>         0.0000
     29 H6          0.1756    7.0373    0.9225 H         1 <0>         0.0000
     30 H7         -1.1835    5.9561    0.5478 H         1 <0>         0.0000
     31 H8          1.3579    5.3444    3.2653 H         1 <0>         0.0000
     32 H9          2.3340    6.0519    1.9762 H         1 <0>         0.0000
     33 H10         2.4242    4.3092    2.3091 H         1 <0>         0.0000
     34 H11        -0.6259    0.9652    0.2307 H         1 <0>         0.0000
     35 H12        -0.2197    0.5004    1.8688 H         1 <0>         0.0000
     36 H13         1.2423    2.5738    0.1722 H         1 <0>         0.0000
     37 H14         1.7108    2.1489    1.8142 H         1 <0>         0.0000
     38 H15         2.9484    0.3859    1.4229 H         1 <0>         0.0000
     39 H16         0.5915   -1.2082    0.2610 H         1 <0>         0.0000
     40 H17         1.0117    4.7605    0.2790 H         1 <0>         0.0000
     41 H18         0.8845    0.1717   -1.5934 H         1 <0>         0.0000
     42 H19         2.2416   -0.6802   -1.2969 H         1 <0>         0.0000
     43 H20         2.9356   -1.9607    5.2985 H         1 <0>         0.0000
     44 H21         3.6858   -0.1599    3.4266 H         1 <0>         0.0000
     45 H22         2.7041   -2.3378    0.6655 H         1 <0>         0.0000
@<TRIPOS>BOND
     1    1    2 ar
     2    1    3 ar
     3    2    5 ar
     4    3    6 ar
     5    4    5 ar
     6    4    6 ar
     7    5    7 1
     8    6   23 1
     9    7   17 am
    10    7   19 2
    11    8   13 1
    12    8   18 am
    13    8   20 2
    14    9   15 1
    15   10   15 1
    16   11   12 1
    17   11   14 1
    18   12   22 1
    19   13   14 1
    20   13   21 1
    21   14   16 1
    22   15   22 1
    23   17   18 1
    24    1   24 1
    25    2   25 1
    26    3   26 1
    27    4   27 1
    28    9   28 1
    29    9   29 1
    30    9   30 1
    31   10   31 1
    32   10   32 1
    33   10   33 1
    34   11   34 1
    35   11   35 1
    36   12   36 1
    37   12   37 1
    38   13   38 1
    39   14   39 1
    40   15   40 1
    41   16   41 1
    42   16   42 1
    43   17   43 1
    44   18   44 1
    45   21   45 1
@<TRIPOS>MOLECULE
LIGAND
   45    45     0     0     0
SMALL
NO_CHARGES

@<TRIPOS>ATOM
      1 C1          1.2491   -0.2643    9.4993 C.ar      1 <0>         0.0000
      2 C2          1.4776    0.1988    8.2036 C.ar      1 <0>         0.0000
      3 C3          1.1939   -1.6354    9.7503 C.ar      1 <0>         0.0000
      4 C4          1.5955   -2.0801    7.4098 C.ar      1 <0>         0.0000
      5 C5          1.6507   -0.7090    7.1588 C.ar      1 <0>         0.0000
      6 C6          1.3670   -2.5432    8.7056 C.ar      1 <0>         0.0000
      7 C7          1.8934   -0.2148    5.7787 C.2       1 <0>         0.0000
      8 C8          1.9325   -1.0133    2.6768 C.2       1 <0>         0.0000
      9 C9         -0.3459    6.1254    1.2341 C.3       1 <0>         0.0000
     10 C10         1.7475    5.1698    2.2562 C.3       1 <0>         0.0000
     11 C11         0.2195    0.8307    0.9188 C.3       1 <0>         0.0000
     12 C12         0.8590    2.2074    1.1305 C.3       1 <0>         0.0000
     13 C13         2.3649   -0.5352    1.2935 C.3       1 <0>         0.0000
     14 C14         1.1534   -0.2750    0.3710 C.3       1 <0>         0.0000
     15 C15         0.6016    4.9327    1.2798 C.3       1 <0>         0.0000
     16 N1          1.6681    0.0834   -0.9557 N.3       1 <0>         0.0000
     17 N2          2.6023   -1.0670    4.9540 N.am      1 <0>         0.0000
     18 N3          2.8469   -0.6810    3.6590 N.am      1 <0>         0.0000
     19 O1          1.4534    0.8829    5.4461 O.2       1 <0>         0.0000
     20 O2          0.8915   -1.6405    2.8632 O.2       1 <0>         0.0000
     21 O3          3.2186   -1.5159    0.7230 O.3       1 <0>         0.0000
     22 S1         -0.3102    3.4478    1.7590 S.3       1 <0>         0.0000
     23 Cl1         1.2993   -4.2348    9.0161 Cl        1 <0>         0.0000
     24 H1          1.1146    0.4426   10.3126 H         1 <0>         0.0000
     25 H2          1.5183    1.2695    8.0204 H         1 <0>         0.0000
     26 H3          1.0151   -1.9815   10.7651 H         1 <0>         0.0000
     27 H4          1.7315   -2.7860    6.5930 H         1 <0>         0.0000
     28 H5         -0.7677    6.3147    2.2275 H         1 <0>         0.0000
     29 H6          0.1756    7.0373    0.9225 H         1 <0>         0.0000
     30 H7         -1.1835    5.9561    0.5478 H         1 <0>         0.0000
     31 H8          1.3579    5.3444    3.2653 H         1 <0>         0.0000
     32 H9          2.3340    6.0519    1.9762 H         1 <0>         0.0000
     33 H10         2.4242    4.3092    2.3091 H         1 <0>         0.0000
     34 H11        -0.6259    0.9652    0.2307 H         1 <0>         0.0000
     35 H12        -0.2197    0.5004    1.8688 H         1 <0>         0.0000
     36 H13         1.2423    2.5738    0.1722 H         1 <0>         0.0000
     37 H14         1.7108    2.1489    1.8142 H         1 <0>         0.0000
     38 H15         2.9484    0.3859    1.4229 H         1 <0>         0.0000
     39 H16         0.5915   -1.2082    0.2610 H         1 <0>         0.0000
     40 H17         1.0117    4.7605    0.2790 H         1 <0>         0.0000
     41 H18         0.8845    0.1717   -1.5934 H         1 <0>         0.0000
     42 H19         2.2416   -0.6802   -1.2969 H         1 <0>         0.0000
     43 H20         2.9356   -1.9607    5.2985 H         1 <0>         0.0000
     44 H21         3.6858   -0.1599    3.4266 H         1 <0>         0.0000
     45 H22         2.7041   -2.3378    0.6655 H         1 <0>         0.0000
@<TRIPOS>BOND
     1    1    2 ar
     2    1    3 ar
     3    2    5 ar
     4    3    6 ar
     5    4    5 ar
     6    4    6 ar
     7    5    7 1
     8    6   23 1
     9    7   17 am
    10    7   19 2
    11    8   13 1
    12    8   18 am
    13    8   20 2
    14    9   15 1
    15   10   15 1
    16   11   12 1
    17   11   14 1
    18   12   22 1
    19   13   14 1
    20   13   21 1
    21   14   16 1
    22   15   22 1
    23   17   18 1
    24    1   24 1
    25    2   25 1
    26    3   26 1
    27    4   27 1
    28    9   28 1
    29    9   29 1
    30    9   30 1
    31   10   31 1
    32   10   32 1
    33   10   33 1
    34   11   34 1
    35   11   35 1
    36   12   36 1
    37   12   37 1
    38   13   38 1
    39   14   39 1
    40   15   40 1
    41   16   41 1
    42   16   42 1
    43   17   43 1
    44   18   44 1
    45   21   45 1
@<TRIPOS>MOLECULE
LIGAND
   45    45     0     0     0
SMALL
NO_CHARGES

@<TRIPOS>ATOM
      1 C1          1.3177   -0.8505    9.3642 C.ar      1 <0>         0.0000
      2 C2          1.8364   -0.5518    8.1043 C.ar      1 <0>         0.0000
      3 C3         -0.0628   -0.9206    9.5514 C.ar      1 <0>         0.0000
      4 C4         -0.4059   -0.3930    7.2188 C.ar      1 <0>         0.0000
      5 C5          0.9746   -0.3231    7.0316 C.ar      1 <0>         0.0000
      6 C6         -0.9246   -0.6918    8.4788 C.ar      1 <0>         0.0000
      7 C7          1.5280   -0.0043    5.6900 C.2       1 <0>         0.0000
      8 C8          1.9325   -1.0133    2.6768 C.2       1 <0>         0.0000
      9 C9          2.1016    5.5550   -0.7655 C.3       1 <0>         0.0000
     10 C10         3.8195    4.0640    0.3143 C.3       1 <0>         0.0000
     11 C11         1.5761    0.1765   -1.0474 C.3       1 <0>         0.0000
     12 C12         2.3784    1.4800   -1.1273 C.3       1 <0>         0.0000
     13 C13         2.3649   -0.5352    1.2935 C.3       1 <0>         0.0000
     14 C14         1.1534   -0.2750    0.3710 C.3       1 <0>         0.0000
     15 C15         2.7418    4.1721   -0.7577 C.3       1 <0>         0.0000
     16 N1          0.3597   -1.5080    0.3138 N.3       1 <0>         0.0000
     17 N2          0.7320   -0.3536    4.6161 N.am      1 <0>         0.0000
     18 N3          1.1743   -0.0714    3.3469 N.am      1 <0>         0.0000
     19 O1          2.6215    0.5492    5.6056 O.2       1 <0>         0.0000
     20 O2          2.2555   -2.1109    3.1269 O.2       1 <0>         0.0000
     21 O3          3.2186   -1.5159    0.7230 O.3       1 <0>         0.0000
     22 S1          1.4741    2.9151   -0.4766 S.3       1 <0>         0.0000
     23 Cl1        -2.6279   -0.7789    8.7104 Cl        1 <0>         0.0000
     24 H1          1.9889   -1.0289   10.1992 H         1 <0>         0.0000
     25 H2          2.9139   -0.5000    7.9709 H         1 <0>         0.0000
     26 H3         -0.4524   -1.1543   10.5388 H         1 <0>         0.0000
     27 H4         -1.0758   -0.2147    6.3801 H         1 <0>         0.0000
     28 H5          1.6476    5.7697    0.2083 H         1 <0>         0.0000
     29 H6          2.8444    6.3372   -0.9581 H         1 <0>         0.0000
     30 H7          1.3123    5.6360   -1.5215 H         1 <0>         0.0000
     31 H8          3.3919    4.2558    1.3048 H         1 <0>         0.0000
     32 H9          4.6156    4.7998    0.1551 H         1 <0>         0.0000
     33 H10         4.2729    3.0665    0.3392 H         1 <0>         0.0000
     34 H11         2.1843   -0.6108   -1.5125 H         1 <0>         0.0000
     35 H12         0.6847    0.2765   -1.6798 H         1 <0>         0.0000
     36 H13         2.6151    1.6893   -2.1758 H         1 <0>         0.0000
     37 H14         3.3304    1.3937   -0.5957 H         1 <0>         0.0000
     38 H15         2.9484    0.3859    1.4229 H         1 <0>         0.0000
     39 H16         0.5249    0.4957    0.8291 H         1 <0>         0.0000
     40 H17         3.1890    3.9773   -1.7383 H         1 <0>         0.0000
     41 H18        -0.4842   -1.3249   -0.2178 H         1 <0>         0.0000
     42 H19         0.0690   -1.7492    1.2550 H         1 <0>         0.0000
     43 H20        -0.1619   -0.8097    4.7623 H         1 <0>         0.0000
     44 H21         0.9480    0.8148    2.9078 H         1 <0>         0.0000
     45 H22         2.7041   -2.3378    0.6655 H         1 <0>         0.0000
@<TRIPOS>BOND
     1    1    2 ar
     2    1    3 ar
     3    2    5 ar
     4    3    6 ar
     5    4    5 ar
     6    4    6 ar
     7    5    7 1
     8    6   23 1
     9    7   17 am
    10    7   19 2
    11    8   13 1
    12    8   18 am
    13    8   20 2
    14    9   15 1
    15   10   15 1
    16   11   12 1
    17   11   14 1
    18   12   22 1
    19   13   14 1
    20   13   21 1
    21   14   16 1
    22   15   22 1
    23   17   18 1
    24    1   24 1
    25    2   25 1
    26    3   26 1
    27    4   27 1
    28    9   28 1
    29    9   29 1
    30    9   30 1
    31   10   31 1
    32   10   32 1
    33   10   33 1
    34   11   34 1
    35   11   35 1
    36   12   36 1
    37   12   37 1
    38   13   38 1
    39   14   39 1
    40   15   40 1
    41   16   41 1
    42   16   42 1
    43   17   43 1
    44   18   44 1
    45   21   45 1
@<TRIPOS>MOLECULE
LIGAND
   45    45     0     0     0
SMALL
NO_CHARGES

@<TRIPOS>ATOM
      1 C1          1.4050   -2.4049    8.7677 C.ar      1 <0>         0.0000
      2 C2          1.6744   -2.0859    7.4368 C.ar      1 <0>         0.0000
      3 C3          2.2499   -3.2707    9.4621 C.ar      1 <0>         0.0000
      4 C4          3.6334   -3.4986    7.4947 C.ar      1 <0>         0.0000
      5 C5          2.7886   -2.6327    6.8003 C.ar      1 <0>         0.0000
      6 C6          3.3641   -3.8176    8.8256 C.ar      1 <0>         0.0000
      7 C7          3.0744   -2.2928    5.3823 C.2       1 <0>         0.0000
      8 C8          1.9325   -1.0133    2.6768 C.2       1 <0>         0.0000
      9 C9          0.9992    5.4655    0.4702 C.3       1 <0>         0.0000
     10 C10         0.2949    5.8734    2.8530 C.3       1 <0>         0.0000
     11 C11         0.2195    0.8307    0.9188 C.3       1 <0>         0.0000
     12 C12         0.8590    2.2074    1.1305 C.3       1 <0>         0.0000
     13 C13         2.3649   -0.5352    1.2935 C.3       1 <0>         0.0000
     14 C14         1.1534   -0.2750    0.3710 C.3       1 <0>         0.0000
     15 C15         0.8241    4.8515    1.8540 C.3       1 <0>         0.0000
     16 N1          1.6681    0.0834   -0.9557 N.3       1 <0>         0.0000
     17 N2          2.6023   -1.0670    4.9540 N.am      1 <0>         0.0000
     18 N3          2.8469   -0.6810    3.6590 N.am      1 <0>         0.0000
     19 O1          3.7083   -3.0847    4.6892 O.2       1 <0>         0.0000
     20 O2          0.8915   -1.6405    2.8632 O.2       1 <0>         0.0000
     21 O3          3.2186   -1.5159    0.7230 O.3       1 <0>         0.0000
     22 S1         -0.3102    3.4478    1.7590 S.3       1 <0>         0.0000
     23 Cl1         4.4064   -4.8856    9.6833 Cl        1 <0>         0.0000
     24 H1          0.5376   -1.9787    9.2631 H         1 <0>         0.0000
     25 H2          1.0086   -1.4100    6.9061 H         1 <0>         0.0000
     26 H3          2.0273   -3.5102   10.4987 H         1 <0>         0.0000
     27 H4          4.5022   -3.9233    6.9958 H         1 <0>         0.0000
     28 H5          0.0422    5.8509    0.1009 H         1 <0>         0.0000
     29 H6          1.7019    6.3059    0.4928 H         1 <0>         0.0000
     30 H7          1.3622    4.7326   -0.2594 H         1 <0>         0.0000
     31 H8         -0.6729    6.2651    2.5204 H         1 <0>         0.0000
     32 H9          0.9758    6.7263    2.9496 H         1 <0>         0.0000
     33 H10         0.1486    5.4355    3.8470 H         1 <0>         0.0000
     34 H11        -0.6259    0.9652    0.2307 H         1 <0>         0.0000
     35 H12        -0.2197    0.5004    1.8688 H         1 <0>         0.0000
     36 H13         1.2423    2.5738    0.1722 H         1 <0>         0.0000
     37 H14         1.7108    2.1489    1.8142 H         1 <0>         0.0000
     38 H15         2.9484    0.3859    1.4229 H         1 <0>         0.0000
     39 H16         0.5915   -1.2082    0.2610 H         1 <0>         0.0000
     40 H17         1.7903    4.4730    2.2043 H         1 <0>         0.0000
     41 H18         0.8845    0.1717   -1.5934 H         1 <0>         0.0000
     42 H19         2.2416   -0.6802   -1.2969 H         1 <0>         0.0000
     43 H20         2.0849   -0.4638    5.5841 H         1 <0>         0.0000
     44 H21         3.6858   -0.1599    3.4266 H         1 <0>         0.0000
     45 H22         2.7041   -2.3378    0.6655 H         1 <0>         0.0000
@<TRIPOS>BOND
     1    1    2 ar
     2    1    3 ar
     3    2    5 ar
     4    3    6 ar
     5    4    5 ar
     6    4    6 ar
     7    5    7 1
     8    6   23 1
     9    7   17 am
    10    7   19 2
    11    8   13 1
    12    8   18 am
    13    8   20 2
    14    9   15 1
    15   10   15 1
    16   11   12 1
    17   11   14 1
    18   12   22 1
    19   13   14 1
    20   13   21 1
    21   14   16 1
    22   15   22 1
    23   17   18 1
    24    1   24 1
    25    2   25 1
    26    3   26 1
    27    4   27 1
    28    9   28 1
    29    9   29 1
    30    9   30 1
    31   10   31 1
    32   10   32 1
    33   10   33 1
    34   11   34 1
    35   11   35 1
    36   12   36 1
    37   12   37 1
    38   13   38 1
    39   14   39 1
    40   15   40 1
    41   16   41 1
    42   16   42 1
    43   17   43 1
    44   18   44 1
    45   21   45 1
@<TRIPOS>MOLECULE
LIGAND
   45    45     0     0     0
SMALL
NO_CHARGES

@<TRIPOS>ATOM
      1 C1          0.8626    0.8871    9.5064 C.ar      1 <0>         0.0000
      2 C2          1.2856    1.2206    8.2197 C.ar      1 <0>         0.0000
      3 C3          0.5640   -0.4388    9.8206 C.ar      1 <0>         0.0000
      4 C4          1.1113   -1.0975    7.5615 C.ar      1 <0>         0.0000
      5 C5          1.4099    0.2284    7.2473 C.ar      1 <0>         0.0000
      6 C6          0.6884   -1.4310    8.8482 C.ar      1 <0>         0.0000
      7 C7          1.8600    0.5847    5.8768 C.2       1 <0>         0.0000
      8 C8          1.9325   -1.0133    2.6768 C.2       1 <0>         0.0000
      9 C9         -2.0930    0.1515   -2.9182 C.3       1 <0>         0.0000
     10 C10        -4.3052   -0.3408   -1.8209 C.3       1 <0>         0.0000
     11 C11         0.2195    0.8307    0.9188 C.3       1 <0>         0.0000
     12 C12        -1.0001    1.1700    0.0549 C.3       1 <0>         0.0000
     13 C13         2.3649   -0.5352    1.2935 C.3       1 <0>         0.0000
     14 C14         1.1534   -0.2750    0.3710 C.3       1 <0>         0.0000
     15 C15        -2.9606    0.3632   -1.6834 C.3       1 <0>         0.0000
     16 N1          1.6681    0.0834   -0.9557 N.3       1 <0>         0.0000
     17 N2          1.4238   -0.2520    4.8674 N.am      1 <0>         0.0000
     18 N3          1.7877    0.0290    3.5734 N.am      1 <0>         0.0000
     19 O1          2.5607    1.5803    5.7128 O.2       1 <0>         0.0000
     20 O2          1.7602   -2.2018    2.9407 O.2       1 <0>         0.0000
     21 O3          3.2186   -1.5159    0.7230 O.3       1 <0>         0.0000
     22 S1         -2.0977   -0.2515   -0.2193 S.3       1 <0>         0.0000
     23 Cl1         0.3202   -3.0669    9.2368 Cl        1 <0>         0.0000
     24 H1          0.7662    1.6597   10.2634 H         1 <0>         0.0000
     25 H2          1.5152    2.2572    7.9869 H         1 <0>         0.0000
     26 H3          0.2356   -0.6836   10.8274 H         1 <0>         0.0000
     27 H4          1.2098   -1.8695    6.8011 H         1 <0>         0.0000
     28 H5         -1.9123   -0.9173   -3.0778 H         1 <0>         0.0000
     29 H6         -2.5817    0.5374   -3.8198 H         1 <0>         0.0000
     30 H7         -1.1164    0.6393   -2.8203 H         1 <0>         0.0000
     31 H8         -4.1585   -1.4173   -1.9636 H         1 <0>         0.0000
     32 H9         -4.8626    0.0299   -2.6884 H         1 <0>         0.0000
     33 H10        -4.9288   -0.2091   -0.9293 H         1 <0>         0.0000
     34 H11        -0.1531    0.5335    1.9082 H         1 <0>         0.0000
     35 H12         0.7975    1.7493    1.0822 H         1 <0>         0.0000
     36 H13        -0.6573    1.5138   -0.9268 H         1 <0>         0.0000
     37 H14        -1.5832    1.9849    0.4933 H         1 <0>         0.0000
     38 H15         2.9484    0.3859    1.4229 H         1 <0>         0.0000
     39 H16         0.5915   -1.2082    0.2610 H         1 <0>         0.0000
     40 H17        -3.1292    1.4361   -1.5418 H         1 <0>         0.0000
     41 H18         0.8845    0.1717   -1.5934 H         1 <0>         0.0000
     42 H19         2.2416   -0.6802   -1.2969 H         1 <0>         0.0000
     43 H20         0.8460   -1.0583    5.0782 H         1 <0>         0.0000
     44 H21         1.9478    0.9869    3.2798 H         1 <0>         0.0000
     45 H22         2.7041   -2.3378    0.6655 H         1 <0>         0.0000
@<TRIPOS>BOND
     1    1    2 ar
     2    1    3 ar
     3    2    5 ar
     4    3    6 ar
     5    4    5 ar
     6    4    6 ar
     7    5    7 1
     8    6   23 1
     9    7   17 am
    10    7   19 2
    11    8   13 1
    12    8   18 am
    13    8   20 2
    14    9   15 1
    15   10   15 1
    16   11   12 1
    17   11   14 1
    18   12   22 1
    19   13   14 1
    20   13   21 1
    21   14   16 1
    22   15   22 1
    23   17   18 1
    24    1   24 1
    25    2   25 1
    26    3   26 1
    27    4   27 1
    28    9   28 1
    29    9   29 1
    30    9   30 1
    31   10   31 1
    32   10   32 1
    33   10   33 1
    34   11   34 1
    35   11   35 1
    36   12   36 1
    37   12   37 1
    38   13   38 1
    39   14   39 1
    40   15   40 1
    41   16   41 1
    42   16   42 1
    43   17   43 1
    44   18   44 1
    45   21   45 1
@<TRIPOS>MOLECULE
LIGAND
   45    45     0     0     0
SMALL
NO_CHARGES

@<TRIPOS>ATOM
      1 C1          1.3200   -1.9638    8.8676 C.ar      1 <0>         0.0000
      2 C2          1.6218   -1.5213    7.5797 C.ar      1 <0>         0.0000
      3 C3          2.1606   -1.6378    9.9320 C.ar      1 <0>         0.0000
      4 C4          3.6050   -0.4271    8.4204 C.ar      1 <0>         0.0000
      5 C5          2.7643   -0.7530    7.3561 C.ar      1 <0>         0.0000
      6 C6          3.3031   -0.8695    9.7084 C.ar      1 <0>         0.0000
      7 C7          3.0854   -0.2826    5.9837 C.2       1 <0>         0.0000
      8 C8          1.9325   -1.0133    2.6768 C.2       1 <0>         0.0000
      9 C9          0.0309    6.1524    1.8816 C.3       1 <0>         0.0000
     10 C10         1.7102    4.7140    3.0862 C.3       1 <0>         0.0000
     11 C11         0.2195    0.8307    0.9188 C.3       1 <0>         0.0000
     12 C12         0.8590    2.2074    1.1305 C.3       1 <0>         0.0000
     13 C13         2.3649   -0.5352    1.2935 C.3       1 <0>         0.0000
     14 C14         1.1534   -0.2750    0.3710 C.3       1 <0>         0.0000
     15 C15         0.8241    4.8515    1.8540 C.3       1 <0>         0.0000
     16 N1          1.6681    0.0834   -0.9557 N.3       1 <0>         0.0000
     17 N2          2.6023   -1.0670    4.9540 N.am      1 <0>         0.0000
     18 N3          2.8469   -0.6810    3.6590 N.am      1 <0>         0.0000
     19 O1          3.7293    0.7533    5.8374 O.2       1 <0>         0.0000
     20 O2          0.8915   -1.6405    2.8632 O.2       1 <0>         0.0000
     21 O3          3.2186   -1.5159    0.7230 O.3       1 <0>         0.0000
     22 S1         -0.3102    3.4478    1.7590 S.3       1 <0>         0.0000
     23 Cl1         4.3397   -0.4674   11.0222 Cl        1 <0>         0.0000
     24 H1          0.4302   -2.5616    9.0415 H         1 <0>         0.0000
     25 H2          0.9591   -1.7818    6.7584 H         1 <0>         0.0000
     26 H3          1.9126   -1.9897   10.9300 H         1 <0>         0.0000
     27 H4          4.4953    0.1729    8.2431 H         1 <0>         0.0000
     28 H5         -0.6040    6.1923    2.7738 H         1 <0>         0.0000
     29 H6          0.6947    7.0236    1.9150 H         1 <0>         0.0000
     30 H7         -0.6232    6.2512    1.0077 H         1 <0>         0.0000
     31 H8          1.1011    4.7317    3.9969 H         1 <0>         0.0000
     32 H9          2.4261    5.5404    3.1569 H         1 <0>         0.0000
     33 H10         2.2708    3.7722    3.0836 H         1 <0>         0.0000
     34 H11        -0.6259    0.9652    0.2307 H         1 <0>         0.0000
     35 H12        -0.2197    0.5004    1.8688 H         1 <0>         0.0000
     36 H13         1.2423    2.5738    0.1722 H         1 <0>         0.0000
     37 H14         1.7108    2.1489    1.8142 H         1 <0>         0.0000
     38 H15         2.9484    0.3859    1.4229 H         1 <0>         0.0000
     39 H16         0.5915   -1.2082    0.2610 H         1 <0>         0.0000
     40 H17         1.4510    4.8315    0.9561 H         1 <0>         0.0000
     41 H18         0.8845    0.1717   -1.5934 H         1 <0>         0.0000
     42 H19         2.2416   -0.6802   -1.2969 H         1 <0>         0.0000
     43 H20         2.0769   -1.9119    5.1509 H         1 <0>         0.0000
     44 H21         3.6858   -0.1599    3.4266 H         1 <0>         0.0000
     45 H22         2.7041   -2.3378    0.6655 H         1 <0>         0.0000
@<TRIPOS>BOND
     1    1    2 ar
     2    1    3 ar
     3    2    5 ar
     4    3    6 ar
     5    4    5 ar
     6    4    6 ar
     7    5    7 1
     8    6   23 1
     9    7   17 am
    10    7   19 2
    11    8   13 1
    12    8   18 am
    13    8   20 2
    14    9   15 1
    15   10   15 1
    16   11   12 1
    17   11   14 1
    18   12   22 1
    19   13   14 1
    20   13   21 1
    21   14   16 1
    22   15   22 1
    23   17   18 1
    24    1   24 1
    25    2   25 1
    26    3   26 1
    27    4   27 1
    28    9   28 1
    29    9   29 1
    30    9   30 1
    31   10   31 1
    32   10   32 1
    33   10   33 1
    34   11   34 1
    35   11   35 1
    36   12   36 1
    37   12   37 1
    38   13   38 1
    39   14   39 1
    40   15   40 1
    41   16   41 1
    42   16   42 1
    43   17   43 1
    44   18   44 1
    45   21   45 1
@<TRIPOS>MOLECULE
LIGAND
   45    45     0     0     0
SMALL
NO_CHARGES

@<TRIPOS>ATOM
      1 C1         -0.5558   -3.8525    7.6500 C.ar      1 <0>         0.0000
      2 C2         -0.0131   -3.3653    6.4611 C.ar      1 <0>         0.0000
      3 C3         -0.2084   -5.1243    8.1058 C.ar      1 <0>         0.0000
      4 C4          1.2244   -5.4217    6.1834 C.ar      1 <0>         0.0000
      5 C5          0.8770   -4.1499    5.7277 C.ar      1 <0>         0.0000
      6 C6          0.6817   -5.9089    7.3724 C.ar      1 <0>         0.0000
      7 C7          1.4542   -3.6304    4.4609 C.2       1 <0>         0.0000
      8 C8          1.9325   -1.0133    2.6768 C.2       1 <0>         0.0000
      9 C9         -4.0623    0.8550    1.3177 C.3       1 <0>         0.0000
     10 C10        -3.5584   -1.5885    1.6583 C.3       1 <0>         0.0000
     11 C11         0.2195    0.8307    0.9188 C.3       1 <0>         0.0000
     12 C12        -1.0001    1.1700    0.0549 C.3       1 <0>         0.0000
     13 C13         2.3649   -0.5352    1.2935 C.3       1 <0>         0.0000
     14 C14         1.1534   -0.2750    0.3710 C.3       1 <0>         0.0000
     15 C15        -2.9754   -0.2124    1.3599 C.3       1 <0>         0.0000
     16 N1          1.6681    0.0834   -0.9557 N.3       1 <0>         0.0000
     17 N2          0.6851   -2.6985    3.7909 N.am      1 <0>         0.0000
     18 N3          1.1665   -2.1628    2.6216 N.am      1 <0>         0.0000
     19 O1          2.5559   -4.0300    4.0926 O.2       1 <0>         0.0000
     20 O2          2.2299   -0.4108    3.7066 O.2       1 <0>         0.0000
     21 O3          3.2186   -1.5159    0.7230 O.3       1 <0>         0.0000
     22 S1         -2.0977   -0.2515   -0.2193 S.3       1 <0>         0.0000
     23 Cl1         1.1103   -7.4778    7.9355 Cl        1 <0>         0.0000
     24 H1         -1.2485   -3.2413    8.2210 H         1 <0>         0.0000
     25 H2         -0.2915   -2.3728    6.1162 H         1 <0>         0.0000
     26 H3         -0.6392   -5.4905    9.0340 H         1 <0>         0.0000
     27 H4          1.9195   -6.0313    5.6095 H         1 <0>         0.0000
     28 H5         -4.8019    0.6148    0.5457 H         1 <0>         0.0000
     29 H6         -4.5966    0.9180    2.2722 H         1 <0>         0.0000
     30 H7         -3.6542    1.8453    1.0855 H         1 <0>         0.0000
     31 H8         -4.2902   -1.8663    0.8915 H         1 <0>         0.0000
     32 H9         -4.0769   -1.6012    2.6234 H         1 <0>         0.0000
     33 H10        -2.7856   -2.3656    1.6725 H         1 <0>         0.0000
     34 H11        -0.1531    0.5335    1.9082 H         1 <0>         0.0000
     35 H12         0.7975    1.7493    1.0822 H         1 <0>         0.0000
     36 H13        -0.6573    1.5138   -0.9268 H         1 <0>         0.0000
     37 H14        -1.5832    1.9849    0.4933 H         1 <0>         0.0000
     38 H15         2.9484    0.3859    1.4229 H         1 <0>         0.0000
     39 H16         0.5915   -1.2082    0.2610 H         1 <0>         0.0000
     40 H17        -2.2476    0.0460    2.1366 H         1 <0>         0.0000
     41 H18         0.8845    0.1717   -1.5934 H         1 <0>         0.0000
     42 H19         2.2416   -0.6802   -1.2969 H         1 <0>         0.0000
     43 H20        -0.2179   -2.4154    4.1557 H         1 <0>         0.0000
     44 H21         0.9630   -2.6038    1.7309 H         1 <0>         0.0000
     45 H22         2.7041   -2.3378    0.6655 H         1 <0>         0.0000
@<TRIPOS>BOND
     1    1    2 ar
     2    1    3 ar
     3    2    5 ar
     4    3    6 ar
     5    4    5 ar
     6    4    6 ar
     7    5    7 1
     8    6   23 1
     9    7   17 am
    10    7   19 2
    11    8   13 1
    12    8   18 am
    13    8   20 2
    14    9   15 1
    15   10   15 1
    16   11   12 1
    17   11   14 1
    18   12   22 1
    19   13   14 1
    20   13   21 1
    21   14   16 1
    22   15   22 1
    23   17   18 1
    24    1   24 1
    25    2   25 1
    26    3   26 1
    27    4   27 1
    28    9   28 1
    29    9   29 1
    30    9   30 1
    31   10   31 1
    32   10   32 1
    33   10   33 1
    34   11   34 1
    35   11   35 1
    36   12   36 1
    37   12   37 1
    38   13   38 1
    39   14   39 1
    40   15   40 1
    41   16   41 1
    42   16   42 1
    43   17   43 1
    44   18   44 1
    45   21   45 1
@<TRIPOS>MOLECULE
LIGAND
   45    45     0     0     0
SMALL
NO_CHARGES

@<TRIPOS>ATOM
      1 C1         -0.3007    0.0342    9.1181 C.ar      1 <0>         0.0000
      2 C2         -0.0572    0.4134    7.7980 C.ar      1 <0>         0.0000
      3 C3          0.2080   -1.1709    9.6027 C.ar      1 <0>         0.0000
      4 C4          1.2035   -1.6176    7.4472 C.ar      1 <0>         0.0000
      5 C5          0.6949   -0.4125    6.9626 C.ar      1 <0>         0.0000
      6 C6          0.9601   -1.9967    8.7673 C.ar      1 <0>         0.0000
      7 C7          0.9532   -0.0081    5.5563 C.2       1 <0>         0.0000
      8 C8          1.9325   -1.0133    2.6768 C.2       1 <0>         0.0000
      9 C9         -4.2967    1.3927   -0.3375 C.3       1 <0>         0.0000
     10 C10        -4.0071    3.8901   -0.4781 C.3       1 <0>         0.0000
     11 C11         0.2195    0.8307    0.9188 C.3       1 <0>         0.0000
     12 C12        -1.0001    1.1700    0.0549 C.3       1 <0>         0.0000
     13 C13         2.3649   -0.5352    1.2935 C.3       1 <0>         0.0000
     14 C14         1.1534   -0.2750    0.3710 C.3       1 <0>         0.0000
     15 C15        -3.3066    2.5373   -0.5169 C.3       1 <0>         0.0000
     16 N1          1.6681    0.0834   -0.9557 N.3       1 <0>         0.0000
     17 N2          2.1084   -0.5131    4.9911 N.am      1 <0>         0.0000
     18 N3          2.3999   -0.1941    3.6876 N.am      1 <0>         0.0000
     19 O1          0.1465    0.7178    4.9806 O.2       1 <0>         0.0000
     20 O2          1.2610   -2.0296    2.8442 O.2       1 <0>         0.0000
     21 O3          3.2186   -1.5159    0.7230 O.3       1 <0>         0.0000
     22 S1         -2.0492    2.4644    0.7791 S.3       1 <0>         0.0000
     23 Cl1         1.5879   -3.4833    9.3661 Cl        1 <0>         0.0000
     24 H1         -0.8859    0.6775    9.7685 H         1 <0>         0.0000
     25 H2         -0.4589    1.3547    7.4319 H         1 <0>         0.0000
     26 H3          0.0102   -1.4532   10.6336 H         1 <0>         0.0000
     27 H4          1.7904   -2.2596    6.7933 H         1 <0>         0.0000
     28 H5         -4.8186    1.4878    0.6213 H         1 <0>         0.0000
     29 H6         -5.0586    1.3975   -1.1249 H         1 <0>         0.0000
     30 H7         -3.7990    0.4164   -0.3457 H         1 <0>         0.0000
     31 H8         -4.5245    4.0235    0.4785 H         1 <0>         0.0000
     32 H9         -4.7599    3.9723   -1.2700 H         1 <0>         0.0000
     33 H10        -3.2998    4.7201   -0.5881 H         1 <0>         0.0000
     34 H11        -0.1531    0.5335    1.9082 H         1 <0>         0.0000
     35 H12         0.7975    1.7493    1.0822 H         1 <0>         0.0000
     36 H13        -1.6176    0.2727   -0.0585 H         1 <0>         0.0000
     37 H14        -0.7009    1.4813   -0.9501 H         1 <0>         0.0000
     38 H15         2.9484    0.3859    1.4229 H         1 <0>         0.0000
     39 H16         0.5915   -1.2082    0.2610 H         1 <0>         0.0000
     40 H17        -2.7965    2.4239   -1.4795 H         1 <0>         0.0000
     41 H18         0.8845    0.1717   -1.5934 H         1 <0>         0.0000
     42 H19         2.2416   -0.6802   -1.2969 H         1 <0>         0.0000
     43 H20         2.7293   -1.1081    5.5287 H         1 <0>         0.0000
     44 H21         2.9499    0.6302    3.4697 H         1 <0>         0.0000
     45 H22         2.7041   -2.3378    0.6655 H         1 <0>         0.0000
@<TRIPOS>BOND
     1    1    2 ar
     2    1    3 ar
     3    2    5 ar
     4    3    6 ar
     5    4    5 ar
     6    4    6 ar
     7    5    7 1
     8    6   23 1
     9    7   17 am
    10    7   19 2
    11    8   13 1
    12    8   18 am
    13    8   20 2
    14    9   15 1
    15   10   15 1
    16   11   12 1
    17   11   14 1
    18   12   22 1
    19   13   14 1
    20   13   21 1
    21   14   16 1
    22   15   22 1
    23   17   18 1
    24    1   24 1
    25    2   25 1
    26    3   26 1
    27    4   27 1
    28    9   28 1
    29    9   29 1
    30    9   30 1
    31   10   31 1
    32   10   32 1
    33   10   33 1
    34   11   34 1
    35   11   35 1
    36   12   36 1
    37   12   37 1
    38   13   38 1
    39   14   39 1
    40   15   40 1
    41   16   41 1
    42   16   42 1
    43   17   43 1
    44   18   44 1
    45   21   45 1
@<TRIPOS>MOLECULE
LIGAND
   45    45     0     0     0
SMALL
NO_CHARGES

@<TRIPOS>ATOM
      1 C1          1.7569    0.2637    9.6380 C.ar      1 <0>         0.0000
      2 C2          2.1789    0.5972    8.3510 C.ar      1 <0>         0.0000
      3 C3          0.5658   -0.4388    9.8212 C.ar      1 <0>         0.0000
      4 C4          0.2188   -0.4741    7.4305 C.ar      1 <0>         0.0000
      5 C5          1.4099    0.2284    7.2473 C.ar      1 <0>         0.0000
      6 C6         -0.2032   -0.8077    8.7175 C.ar      1 <0>         0.0000
      7 C7          1.8600    0.5847    5.8768 C.2       1 <0>         0.0000
      8 C8          1.9325   -1.0133    2.6768 C.2       1 <0>         0.0000
      9 C9         -3.5032    1.0894   -2.1358 C.3       1 <0>         0.0000
     10 C10        -4.8182   -0.2133   -0.4286 C.3       1 <0>         0.0000
     11 C11         0.2195    0.8307    0.9188 C.3       1 <0>         0.0000
     12 C12        -1.0001    1.1700    0.0549 C.3       1 <0>         0.0000
     13 C13         2.3649   -0.5352    1.2935 C.3       1 <0>         0.0000
     14 C14         1.1534   -0.2750    0.3710 C.3       1 <0>         0.0000
     15 C15        -3.5917    0.6563   -0.6773 C.3       1 <0>         0.0000
     16 N1          1.6681    0.0834   -0.9557 N.3       1 <0>         0.0000
     17 N2          1.4238   -0.2520    4.8674 N.am      1 <0>         0.0000
     18 N3          1.7877    0.0290    3.5734 N.am      1 <0>         0.0000
     19 O1          2.5607    1.5803    5.7128 O.2       1 <0>         0.0000
     20 O2          1.7602   -2.2018    2.9407 O.2       1 <0>         0.0000
     21 O3          3.2186   -1.5159    0.7230 O.3       1 <0>         0.0000
     22 S1         -2.0977   -0.2515   -0.2193 S.3       1 <0>         0.0000
     23 Cl1        -1.6725   -1.6750    8.9443 Cl        1 <0>         0.0000
     24 H1          2.3559    0.5507   10.4971 H         1 <0>         0.0000
     25 H2          3.1088    1.1449    8.2210 H         1 <0>         0.0000
     26 H3          0.2496   -0.6918   10.8299 H         1 <0>         0.0000
     27 H4         -0.3788   -0.7611    6.5676 H         1 <0>         0.0000
     28 H5         -3.4475    0.2126   -2.7905 H         1 <0>         0.0000
     29 H6         -4.3868    1.6640   -2.4354 H         1 <0>         0.0000
     30 H7         -2.6138    1.7003   -2.3277 H         1 <0>         0.0000
     31 H8         -4.7827   -1.1102   -1.0571 H         1 <0>         0.0000
     32 H9         -5.7425    0.3209   -0.6752 H         1 <0>         0.0000
     33 H10        -4.8798   -0.5446    0.6143 H         1 <0>         0.0000
     34 H11        -0.1531    0.5335    1.9082 H         1 <0>         0.0000
     35 H12         0.7975    1.7493    1.0822 H         1 <0>         0.0000
     36 H13        -0.6573    1.5138   -0.9268 H         1 <0>         0.0000
     37 H14        -1.5832    1.9849    0.4933 H         1 <0>         0.0000
     38 H15         2.9484    0.3859    1.4229 H         1 <0>         0.0000
     39 H16         0.5915   -1.2082    0.2610 H         1 <0>         0.0000
     40 H17        -3.6464    1.5459   -0.0407 H         1 <0>         0.0000
     41 H18         0.8845    0.1717   -1.5934 H         1 <0>         0.0000
     42 H19         2.2416   -0.6802   -1.2969 H         1 <0>         0.0000
     43 H20         0.8460   -1.0583    5.0782 H         1 <0>         0.0000
     44 H21         1.9478    0.9869    3.2798 H         1 <0>         0.0000
     45 H22         2.7041   -2.3378    0.6655 H         1 <0>         0.0000
@<TRIPOS>BOND
     1    1    2 ar
     2    1    3 ar
     3    2    5 ar
     4    3    6 ar
     5    4    5 ar
     6    4    6 ar
     7    5    7 1
     8    6   23 1
     9    7   17 am
    10    7   19 2
    11    8   13 1
    12    8   18 am
    13    8   20 2
    14    9   15 1
    15   10   15 1
    16   11   12 1
    17   11   14 1
    18   12   22 1
    19   13   14 1
    20   13   21 1
    21   14   16 1
    22   15   22 1
    23   17   18 1
    24    1   24 1
    25    2   25 1
    26    3   26 1
    27    4   27 1
    28    9   28 1
    29    9   29 1
    30    9   30 1
    31   10   31 1
    32   10   32 1
    33   10   33 1
    34   11   34 1
    35   11   35 1
    36   12   36 1
    37   12   37 1
    38   13   38 1
    39   14   39 1
    40   15   40 1
    41   16   41 1
    42   16   42 1
    43   17   43 1
    44   18   44 1
    45   21   45 1
@<TRIPOS>MOLECULE
LIGAND
   45    45     0     0     0
SMALL
NO_CHARGES

@<TRIPOS>ATOM
      1 C1         -2.8134   -3.6397    6.9542 C.ar      1 <0>         0.0000
      2 C2         -2.3780   -3.0405    5.7723 C.ar      1 <0>         0.0000
      3 C3         -1.8836   -4.1212    7.8758 C.ar      1 <0>         0.0000
      4 C4         -0.0829   -3.4042    6.4334 C.ar      1 <0>         0.0000
      5 C5         -1.0128   -2.9227    5.5119 C.ar      1 <0>         0.0000
      6 C6         -0.5183   -4.0035    7.6154 C.ar      1 <0>         0.0000
      7 C7         -0.5498   -2.2848    4.2523 C.2       1 <0>         0.0000
      8 C8          1.9325   -1.0133    2.6768 C.2       1 <0>         0.0000
      9 C9         -2.8396    0.6809   -2.6742 C.3       1 <0>         0.0000
     10 C10        -4.6560   -0.1960   -1.1670 C.3       1 <0>         0.0000
     11 C11         0.2195    0.8307    0.9188 C.3       1 <0>         0.0000
     12 C12        -1.0001    1.1700    0.0549 C.3       1 <0>         0.0000
     13 C13         2.3649   -0.5352    1.2935 C.3       1 <0>         0.0000
     14 C14         1.1534   -0.2750    0.3710 C.3       1 <0>         0.0000
     15 C15        -3.3416    0.5718   -1.2395 C.3       1 <0>         0.0000
     16 N1          1.6681    0.0834   -0.9557 N.3       1 <0>         0.0000
     17 N2          0.6851   -2.6985    3.7909 N.am      1 <0>         0.0000
     18 N3          1.1665   -2.1628    2.6216 N.am      1 <0>         0.0000
     19 O1         -1.2703   -1.4609    3.6944 O.2       1 <0>         0.0000
     20 O2          2.2299   -0.4108    3.7066 O.2       1 <0>         0.0000
     21 O3          3.2186   -1.5159    0.7230 O.3       1 <0>         0.0000
     22 S1         -2.0977   -0.2515   -0.2193 S.3       1 <0>         0.0000
     23 Cl1         0.6285   -4.5974    8.7532 Cl        1 <0>         0.0000
     24 H1         -3.8765   -3.7310    7.1569 H         1 <0>         0.0000
     25 H2         -3.1122   -2.6692    5.0619 H         1 <0>         0.0000
     26 H3         -2.2377   -4.5858    8.7924 H         1 <0>         0.0000
     27 H4          0.9816   -3.3106    6.2279 H         1 <0>         0.0000
     28 H5         -2.6847   -0.3167   -3.1002 H         1 <0>         0.0000
     29 H6         -3.5648    1.1984   -3.3121 H         1 <0>         0.0000
     30 H7         -1.8850    1.2160   -2.7338 H         1 <0>         0.0000
     31 H8         -4.5291   -1.2071   -1.5698 H         1 <0>         0.0000
     32 H9         -5.4375    0.2943   -1.7580 H         1 <0>         0.0000
     33 H10        -5.0153   -0.2952   -0.1363 H         1 <0>         0.0000
     34 H11        -0.1531    0.5335    1.9082 H         1 <0>         0.0000
     35 H12         0.7975    1.7493    1.0822 H         1 <0>         0.0000
     36 H13        -0.6573    1.5138   -0.9268 H         1 <0>         0.0000
     37 H14        -1.5832    1.9849    0.4933 H         1 <0>         0.0000
     38 H15         2.9484    0.3859    1.4229 H         1 <0>         0.0000
     39 H16         0.5915   -1.2082    0.2610 H         1 <0>         0.0000
     40 H17        -3.4899    1.5778   -0.8328 H         1 <0>         0.0000
     41 H18         0.8845    0.1717   -1.5934 H         1 <0>         0.0000
     42 H19         2.2416   -0.6802   -1.2969 H         1 <0>         0.0000
     43 H20         1.2257   -3.3847    4.3060 H         1 <0>         0.0000
     44 H21         0.9630   -2.6038    1.7309 H         1 <0>         0.0000
     45 H22         2.7041   -2.3378    0.6655 H         1 <0>         0.0000
@<TRIPOS>BOND
     1    1    2 ar
     2    1    3 ar
     3    2    5 ar
     4    3    6 ar
     5    4    5 ar
     6    4    6 ar
     7    5    7 1
     8    6   23 1
     9    7   17 am
    10    7   19 2
    11    8   13 1
    12    8   18 am
    13    8   20 2
    14    9   15 1
    15   10   15 1
    16   11   12 1
    17   11   14 1
    18   12   22 1
    19   13   14 1
    20   13   21 1
    21   14   16 1
    22   15   22 1
    23   17   18 1
    24    1   24 1
    25    2   25 1
    26    3   26 1
    27    4   27 1
    28    9   28 1
    29    9   29 1
    30    9   30 1
    31   10   31 1
    32   10   32 1
    33   10   33 1
    34   11   34 1
    35   11   35 1
    36   12   36 1
    37   12   37 1
    38   13   38 1
    39   14   39 1
    40   15   40 1
    41   16   41 1
    42   16   42 1
    43   17   43 1
    44   18   44 1
    45   21   45 1
@<TRIPOS>MOLECULE
LIGAND
   45    45     0     0     0
SMALL
NO_CHARGES

@<TRIPOS>ATOM
      1 C1          2.3494   -1.9340    9.0709 C.ar      1 <0>         0.0000
      2 C2          2.6184   -1.6158    7.7398 C.ar      1 <0>         0.0000
      3 C3          2.2507   -3.2692    9.4627 C.ar      1 <0>         0.0000
      4 C4          2.6898   -3.9679    7.1920 C.ar      1 <0>         0.0000
      5 C5          2.7886   -2.6327    6.8003 C.ar      1 <0>         0.0000
      6 C6          2.4209   -4.2860    8.5232 C.ar      1 <0>         0.0000
      7 C7          3.0744   -2.2928    5.3823 C.2       1 <0>         0.0000
      8 C8          1.9325   -1.0133    2.6768 C.2       1 <0>         0.0000
      9 C9          0.9992    5.4655    0.4702 C.3       1 <0>         0.0000
     10 C10         0.2949    5.8734    2.8530 C.3       1 <0>         0.0000
     11 C11         0.2195    0.8307    0.9188 C.3       1 <0>         0.0000
     12 C12         0.8590    2.2074    1.1305 C.3       1 <0>         0.0000
     13 C13         2.3649   -0.5352    1.2935 C.3       1 <0>         0.0000
     14 C14         1.1534   -0.2750    0.3710 C.3       1 <0>         0.0000
     15 C15         0.8241    4.8515    1.8540 C.3       1 <0>         0.0000
     16 N1          1.6681    0.0834   -0.9557 N.3       1 <0>         0.0000
     17 N2          2.6023   -1.0670    4.9540 N.am      1 <0>         0.0000
     18 N3          2.8469   -0.6810    3.6590 N.am      1 <0>         0.0000
     19 O1          3.7083   -3.0847    4.6892 O.2       1 <0>         0.0000
     20 O2          0.8915   -1.6405    2.8632 O.2       1 <0>         0.0000
     21 O3          3.2186   -1.5159    0.7230 O.3       1 <0>         0.0000
     22 S1         -0.3102    3.4478    1.7590 S.3       1 <0>         0.0000
     23 Cl1         2.2994   -5.9333    9.0073 Cl        1 <0>         0.0000
     24 H1          2.2173   -1.1422    9.8023 H         1 <0>         0.0000
     25 H2          2.6929   -0.5718    7.4466 H         1 <0>         0.0000
     26 H3          2.0407   -3.5019   10.5034 H         1 <0>         0.0000
     27 H4          2.8236   -4.7591    6.4570 H         1 <0>         0.0000
     28 H5          0.0422    5.8509    0.1009 H         1 <0>         0.0000
     29 H6          1.7019    6.3059    0.4928 H         1 <0>         0.0000
     30 H7          1.3622    4.7326   -0.2594 H         1 <0>         0.0000
     31 H8         -0.6729    6.2651    2.5204 H         1 <0>         0.0000
     32 H9          0.9758    6.7263    2.9496 H         1 <0>         0.0000
     33 H10         0.1486    5.4355    3.8470 H         1 <0>         0.0000
     34 H11        -0.6259    0.9652    0.2307 H         1 <0>         0.0000
     35 H12        -0.2197    0.5004    1.8688 H         1 <0>         0.0000
     36 H13         1.2423    2.5738    0.1722 H         1 <0>         0.0000
     37 H14         1.7108    2.1489    1.8142 H         1 <0>         0.0000
     38 H15         2.9484    0.3859    1.4229 H         1 <0>         0.0000
     39 H16         0.5915   -1.2082    0.2610 H         1 <0>         0.0000
     40 H17         1.7903    4.4730    2.2043 H         1 <0>         0.0000
     41 H18         0.8845    0.1717   -1.5934 H         1 <0>         0.0000
     42 H19         2.2416   -0.6802   -1.2969 H         1 <0>         0.0000
     43 H20         2.0849   -0.4638    5.5841 H         1 <0>         0.0000
     44 H21         3.6858   -0.1599    3.4266 H         1 <0>         0.0000
     45 H22         2.7041   -2.3378    0.6655 H         1 <0>         0.0000
@<TRIPOS>BOND
     1    1    2 ar
     2    1    3 ar
     3    2    5 ar
     4    3    6 ar
     5    4    5 ar
     6    4    6 ar
     7    5    7 1
     8    6   23 1
     9    7   17 am
    10    7   19 2
    11    8   13 1
    12    8   18 am
    13    8   20 2
    14    9   15 1
    15   10   15 1
    16   11   12 1
    17   11   14 1
    18   12   22 1
    19   13   14 1
    20   13   21 1
    21   14   16 1
    22   15   22 1
    23   17   18 1
    24    1   24 1
    25    2   25 1
    26    3   26 1
    27    4   27 1
    28    9   28 1
    29    9   29 1
    30    9   30 1
    31   10   31 1
    32   10   32 1
    33   10   33 1
    34   11   34 1
    35   11   35 1
    36   12   36 1
    37   12   37 1
    38   13   38 1
    39   14   39 1
    40   15   40 1
    41   16   41 1
    42   16   42 1
    43   17   43 1
    44   18   44 1
    45   21   45 1
@<TRIPOS>MOLECULE
LIGAND
   45    45     0     0     0
SMALL
NO_CHARGES

@<TRIPOS>ATOM
      1 C1          1.4050   -2.4049    8.7677 C.ar      1 <0>         0.0000
      2 C2          1.6744   -2.0859    7.4368 C.ar      1 <0>         0.0000
      3 C3          2.2499   -3.2707    9.4621 C.ar      1 <0>         0.0000
      4 C4          3.6334   -3.4986    7.4947 C.ar      1 <0>         0.0000
      5 C5          2.7886   -2.6327    6.8003 C.ar      1 <0>         0.0000
      6 C6          3.3641   -3.8176    8.8256 C.ar      1 <0>         0.0000
      7 C7          3.0744   -2.2928    5.3823 C.2       1 <0>         0.0000
      8 C8          1.9325   -1.0133    2.6768 C.2       1 <0>         0.0000
      9 C9         -1.3566    4.2423   -1.1718 C.3       1 <0>         0.0000
     10 C10        -1.3823    5.0762    1.2040 C.3       1 <0>         0.0000
     11 C11         0.2195    0.8307    0.9188 C.3       1 <0>         0.0000
     12 C12        -1.0001    1.1700    0.0549 C.3       1 <0>         0.0000
     13 C13         2.3649   -0.5352    1.2935 C.3       1 <0>         0.0000
     14 C14         1.1534   -0.2750    0.3710 C.3       1 <0>         0.0000
     15 C15        -1.0699    3.9009    0.2855 C.3       1 <0>         0.0000
     16 N1          1.6681    0.0834   -0.9557 N.3       1 <0>         0.0000
     17 N2          2.6023   -1.0670    4.9540 N.am      1 <0>         0.0000
     18 N3          2.8469   -0.6810    3.6590 N.am      1 <0>         0.0000
     19 O1          3.7083   -3.0847    4.6892 O.2       1 <0>         0.0000
     20 O2          0.8915   -1.6405    2.8632 O.2       1 <0>         0.0000
     21 O3          3.2186   -1.5159    0.7230 O.3       1 <0>         0.0000
     22 S1         -2.0492    2.4644    0.7791 S.3       1 <0>         0.0000
     23 Cl1         4.4064   -4.8856    9.6833 Cl        1 <0>         0.0000
     24 H1          0.5376   -1.9787    9.2631 H         1 <0>         0.0000
     25 H2          1.0086   -1.4100    6.9061 H         1 <0>         0.0000
     26 H3          2.0273   -3.5102   10.4987 H         1 <0>         0.0000
     27 H4          4.5022   -3.9233    6.9958 H         1 <0>         0.0000
     28 H5         -2.4105    4.5137   -1.2989 H         1 <0>         0.0000
     29 H6         -0.7576    5.0967   -1.5064 H         1 <0>         0.0000
     30 H7         -1.1520    3.3963   -1.8378 H         1 <0>         0.0000
     31 H8         -2.4367    5.3604    1.1134 H         1 <0>         0.0000
     32 H9         -0.7841    5.9563    0.9431 H         1 <0>         0.0000
     33 H10        -1.1964    4.8333    2.2564 H         1 <0>         0.0000
     34 H11        -0.1531    0.5335    1.9082 H         1 <0>         0.0000
     35 H12         0.7975    1.7493    1.0822 H         1 <0>         0.0000
     36 H13        -1.6176    0.2727   -0.0585 H         1 <0>         0.0000
     37 H14        -0.7009    1.4813   -0.9501 H         1 <0>         0.0000
     38 H15         2.9484    0.3859    1.4229 H         1 <0>         0.0000
     39 H16         0.5915   -1.2082    0.2610 H         1 <0>         0.0000
     40 H17        -0.0132    3.6330    0.3910 H         1 <0>         0.0000
     41 H18         0.8845    0.1717   -1.5934 H         1 <0>         0.0000
     42 H19         2.2416   -0.6802   -1.2969 H         1 <0>         0.0000
     43 H20         2.0849   -0.4638    5.5841 H         1 <0>         0.0000
     44 H21         3.6858   -0.1599    3.4266 H         1 <0>         0.0000
     45 H22         2.7041   -2.3378    0.6655 H         1 <0>         0.0000
@<TRIPOS>BOND
     1    1    2 ar
     2    1    3 ar
     3    2    5 ar
     4    3    6 ar
     5    4    5 ar
     6    4    6 ar
     7    5    7 1
     8    6   23 1
     9    7   17 am
    10    7   19 2
    11    8   13 1
    12    8   18 am
    13    8   20 2
    14    9   15 1
    15   10   15 1
    16   11   12 1
    17   11   14 1
    18   12   22 1
    19   13   14 1
    20   13   21 1
    21   14   16 1
    22   15   22 1
    23   17   18 1
    24    1   24 1
    25    2   25 1
    26    3   26 1
    27    4   27 1
    28    9   28 1
    29    9   29 1
    30    9   30 1
    31   10   31 1
    32   10   32 1
    33   10   33 1
    34   11   34 1
    35   11   35 1
    36   12   36 1
    37   12   37 1
    38   13   38 1
    39   14   39 1
    40   15   40 1
    41   16   41 1
    42   16   42 1
    43   17   43 1
    44   18   44 1
    45   21   45 1
@<TRIPOS>MOLECULE
LIGAND
   45    45     0     0     0
SMALL
NO_CHARGES

@<TRIPOS>ATOM
      1 C1          1.3200   -1.9638    8.8676 C.ar      1 <0>         0.0000
      2 C2          1.6218   -1.5213    7.5797 C.ar      1 <0>         0.0000
      3 C3          2.1606   -1.6378    9.9320 C.ar      1 <0>         0.0000
      4 C4          3.6050   -0.4271    8.4204 C.ar      1 <0>         0.0000
      5 C5          2.7643   -0.7530    7.3561 C.ar      1 <0>         0.0000
      6 C6          3.3031   -0.8695    9.7084 C.ar      1 <0>         0.0000
      7 C7          3.0854   -0.2826    5.9837 C.2       1 <0>         0.0000
      8 C8          1.9325   -1.0133    2.6768 C.2       1 <0>         0.0000
      9 C9          0.9992    5.4655    0.4702 C.3       1 <0>         0.0000
     10 C10         0.2949    5.8734    2.8530 C.3       1 <0>         0.0000
     11 C11         0.2195    0.8307    0.9188 C.3       1 <0>         0.0000
     12 C12         0.8590    2.2074    1.1305 C.3       1 <0>         0.0000
     13 C13         2.3649   -0.5352    1.2935 C.3       1 <0>         0.0000
     14 C14         1.1534   -0.2750    0.3710 C.3       1 <0>         0.0000
     15 C15         0.8241    4.8515    1.8540 C.3       1 <0>         0.0000
     16 N1          1.6681    0.0834   -0.9557 N.3       1 <0>         0.0000
     17 N2          2.6023   -1.0670    4.9540 N.am      1 <0>         0.0000
     18 N3          2.8469   -0.6810    3.6590 N.am      1 <0>         0.0000
     19 O1          3.7293    0.7533    5.8374 O.2       1 <0>         0.0000
     20 O2          0.8915   -1.6405    2.8632 O.2       1 <0>         0.0000
     21 O3          3.2186   -1.5159    0.7230 O.3       1 <0>         0.0000
     22 S1         -0.3102    3.4478    1.7590 S.3       1 <0>         0.0000
     23 Cl1         4.3397   -0.4674   11.0222 Cl        1 <0>         0.0000
     24 H1          0.4302   -2.5616    9.0415 H         1 <0>         0.0000
     25 H2          0.9591   -1.7818    6.7584 H         1 <0>         0.0000
     26 H3          1.9126   -1.9897   10.9300 H         1 <0>         0.0000
     27 H4          4.4953    0.1729    8.2431 H         1 <0>         0.0000
     28 H5          0.0422    5.8509    0.1009 H         1 <0>         0.0000
     29 H6          1.7019    6.3059    0.4928 H         1 <0>         0.0000
     30 H7          1.3622    4.7326   -0.2594 H         1 <0>         0.0000
     31 H8         -0.6729    6.2651    2.5204 H         1 <0>         0.0000
     32 H9          0.9758    6.7263    2.9496 H         1 <0>         0.0000
     33 H10         0.1486    5.4355    3.8470 H         1 <0>         0.0000
     34 H11        -0.6259    0.9652    0.2307 H         1 <0>         0.0000
     35 H12        -0.2197    0.5004    1.8688 H         1 <0>         0.0000
     36 H13         1.2423    2.5738    0.1722 H         1 <0>         0.0000
     37 H14         1.7108    2.1489    1.8142 H         1 <0>         0.0000
     38 H15         2.9484    0.3859    1.4229 H         1 <0>         0.0000
     39 H16         0.5915   -1.2082    0.2610 H         1 <0>         0.0000
     40 H17         1.7903    4.4730    2.2043 H         1 <0>         0.0000
     41 H18         0.8845    0.1717   -1.5934 H         1 <0>         0.0000
     42 H19         2.2416   -0.6802   -1.2969 H         1 <0>         0.0000
     43 H20         2.0769   -1.9119    5.1509 H         1 <0>         0.0000
     44 H21         3.6858   -0.1599    3.4266 H         1 <0>         0.0000
     45 H22         2.7041   -2.3378    0.6655 H         1 <0>         0.0000
@<TRIPOS>BOND
     1    1    2 ar
     2    1    3 ar
     3    2    5 ar
     4    3    6 ar
     5    4    5 ar
     6    4    6 ar
     7    5    7 1
     8    6   23 1
     9    7   17 am
    10    7   19 2
    11    8   13 1
    12    8   18 am
    13    8   20 2
    14    9   15 1
    15   10   15 1
    16   11   12 1
    17   11   14 1
    18   12   22 1
    19   13   14 1
    20   13   21 1
    21   14   16 1
    22   15   22 1
    23   17   18 1
    24    1   24 1
    25    2   25 1
    26    3   26 1
    27    4   27 1
    28    9   28 1
    29    9   29 1
    30    9   30 1
    31   10   31 1
    32   10   32 1
    33   10   33 1
    34   11   34 1
    35   11   35 1
    36   12   36 1
    37   12   37 1
    38   13   38 1
    39   14   39 1
    40   15   40 1
    41   16   41 1
    42   16   42 1
    43   17   43 1
    44   18   44 1
    45   21   45 1
@<TRIPOS>MOLECULE
LIGAND
   45    45     0     0     0
SMALL
NO_CHARGES

@<TRIPOS>ATOM
      1 C1         -2.3305   -2.8430    7.5352 C.ar      1 <0>         0.0000
      2 C2         -1.8950   -2.2446    6.3529 C.ar      1 <0>         0.0000
      3 C3         -1.8838   -4.1195    7.8766 C.ar      1 <0>         0.0000
      4 C4         -0.5660   -4.1993    5.8532 C.ar      1 <0>         0.0000
      5 C5         -1.0128   -2.9227    5.5119 C.ar      1 <0>         0.0000
      6 C6         -1.0015   -4.7977    7.0355 C.ar      1 <0>         0.0000
      7 C7         -0.5498   -2.2848    4.2523 C.2       1 <0>         0.0000
      8 C8          1.9325   -1.0133    2.6768 C.2       1 <0>         0.0000
      9 C9          0.9492    3.5395    4.1781 C.3       1 <0>         0.0000
     10 C10        -1.5671    3.4454    4.1811 C.3       1 <0>         0.0000
     11 C11         0.2195    0.8307    0.9188 C.3       1 <0>         0.0000
     12 C12         0.8590    2.2074    1.1305 C.3       1 <0>         0.0000
     13 C13         2.3649   -0.5352    1.2935 C.3       1 <0>         0.0000
     14 C14         1.1534   -0.2750    0.3710 C.3       1 <0>         0.0000
     15 C15        -0.2901    2.9668    3.5009 C.3       1 <0>         0.0000
     16 N1          1.6681    0.0834   -0.9557 N.3       1 <0>         0.0000
     17 N2          0.6851   -2.6985    3.7909 N.am      1 <0>         0.0000
     18 N3          1.1665   -2.1628    2.6216 N.am      1 <0>         0.0000
     19 O1         -1.2703   -1.4609    3.6944 O.2       1 <0>         0.0000
     20 O2          2.2299   -0.4108    3.7066 O.2       1 <0>         0.0000
     21 O3          3.2186   -1.5159    0.7230 O.3       1 <0>         0.0000
     22 S1         -0.3102    3.4478    1.7590 S.3       1 <0>         0.0000
     23 Cl1        -0.4502   -6.3727    7.4576 Cl        1 <0>         0.0000
     24 H1         -3.0172   -2.3146    8.1901 H         1 <0>         0.0000
     25 H2         -2.2503   -1.2495    6.0977 H         1 <0>         0.0000
     26 H3         -2.2317   -4.5731    8.8010 H         1 <0>         0.0000
     27 H4          0.1227   -4.7258    5.1954 H         1 <0>         0.0000
     28 H5          0.9275    4.6347    4.1481 H         1 <0>         0.0000
     29 H6          1.0005    3.2436    5.2319 H         1 <0>         0.0000
     30 H7          1.8721    3.2151    3.6839 H         1 <0>         0.0000
     31 H8         -1.6274    4.5391    4.1512 H         1 <0>         0.0000
     32 H9         -1.5938    3.1464    5.2349 H         1 <0>         0.0000
     33 H10        -2.4642    3.0528    3.6891 H         1 <0>         0.0000
     34 H11        -0.6259    0.9652    0.2307 H         1 <0>         0.0000
     35 H12        -0.2197    0.5004    1.8688 H         1 <0>         0.0000
     36 H13         1.2423    2.5738    0.1722 H         1 <0>         0.0000
     37 H14         1.7108    2.1489    1.8142 H         1 <0>         0.0000
     38 H15         2.9484    0.3859    1.4229 H         1 <0>         0.0000
     39 H16         0.5915   -1.2082    0.2610 H         1 <0>         0.0000
     40 H17        -0.2491    1.8731    3.5416 H         1 <0>         0.0000
     41 H18         0.8845    0.1717   -1.5934 H         1 <0>         0.0000
     42 H19         2.2416   -0.6802   -1.2969 H         1 <0>         0.0000
     43 H20         1.2257   -3.3847    4.3060 H         1 <0>         0.0000
     44 H21         0.9630   -2.6038    1.7309 H         1 <0>         0.0000
     45 H22         2.7041   -2.3378    0.6655 H         1 <0>         0.0000
@<TRIPOS>BOND
     1    1    2 ar
     2    1    3 ar
     3    2    5 ar
     4    3    6 ar
     5    4    5 ar
     6    4    6 ar
     7    5    7 1
     8    6   23 1
     9    7   17 am
    10    7   19 2
    11    8   13 1
    12    8   18 am
    13    8   20 2
    14    9   15 1
    15   10   15 1
    16   11   12 1
    17   11   14 1
    18   12   22 1
    19   13   14 1
    20   13   21 1
    21   14   16 1
    22   15   22 1
    23   17   18 1
    24    1   24 1
    25    2   25 1
    26    3   26 1
    27    4   27 1
    28    9   28 1
    29    9   29 1
    30    9   30 1
    31   10   31 1
    32   10   32 1
    33   10   33 1
    34   11   34 1
    35   11   35 1
    36   12   36 1
    37   12   37 1
    38   13   38 1
    39   14   39 1
    40   15   40 1
    41   16   41 1
    42   16   42 1
    43   17   43 1
    44   18   44 1
    45   21   45 1
@<TRIPOS>MOLECULE
LIGAND
   45    45     0     0     0
SMALL
NO_CHARGES

@<TRIPOS>ATOM
      1 C1          0.8357    0.1354    9.3996 C.ar      1 <0>         0.0000
      2 C2          1.3551    0.4336    8.1400 C.ar      1 <0>         0.0000
      3 C3         -0.0643   -0.9196    9.5510 C.ar      1 <0>         0.0000
      4 C4          0.0746   -1.3780    7.1830 C.ar      1 <0>         0.0000
      5 C5          0.9746   -0.3231    7.0316 C.ar      1 <0>         0.0000
      6 C6         -0.4448   -1.6762    8.4427 C.ar      1 <0>         0.0000
      7 C7          1.5280   -0.0043    5.6900 C.2       1 <0>         0.0000
      8 C8          1.9325   -1.0133    2.6768 C.2       1 <0>         0.0000
      9 C9          2.7221    4.6042   -2.2190 C.3       1 <0>         0.0000
     10 C10         2.5092    5.3544    0.1752 C.3       1 <0>         0.0000
     11 C11         1.5761    0.1765   -1.0474 C.3       1 <0>         0.0000
     12 C12         2.3784    1.4800   -1.1273 C.3       1 <0>         0.0000
     13 C13         2.3649   -0.5352    1.2935 C.3       1 <0>         0.0000
     14 C14         1.1534   -0.2750    0.3710 C.3       1 <0>         0.0000
     15 C15         2.7418    4.1721   -0.7577 C.3       1 <0>         0.0000
     16 N1          0.3597   -1.5080    0.3138 N.3       1 <0>         0.0000
     17 N2          0.7320   -0.3536    4.6161 N.am      1 <0>         0.0000
     18 N3          1.1743   -0.0714    3.3469 N.am      1 <0>         0.0000
     19 O1          2.6215    0.5492    5.6056 O.2       1 <0>         0.0000
     20 O2          2.2555   -2.1109    3.1269 O.2       1 <0>         0.0000
     21 O3          3.2186   -1.5159    0.7230 O.3       1 <0>         0.0000
     22 S1          1.4741    2.9151   -0.4766 S.3       1 <0>         0.0000
     23 Cl1        -1.5550   -2.9781    8.6304 Cl        1 <0>         0.0000
     24 H1          1.1323    0.7244   10.2624 H         1 <0>         0.0000
     25 H2          2.0556    1.2581    8.0346 H         1 <0>         0.0000
     26 H3         -0.4608   -1.1402   10.5387 H         1 <0>         0.0000
     27 H4         -0.2200   -1.9669    6.3167 H         1 <0>         0.0000
     28 H5          1.7574    5.0604   -2.4680 H         1 <0>         0.0000
     29 H6          3.4979    5.3502   -2.4247 H         1 <0>         0.0000
     30 H7          2.8703    3.7569   -2.8981 H         1 <0>         0.0000
     31 H8          1.5412    5.8221   -0.0370 H         1 <0>         0.0000
     32 H9          3.2784    6.1235    0.0438 H         1 <0>         0.0000
     33 H10         2.5035    5.0496    1.2280 H         1 <0>         0.0000
     34 H11         2.1843   -0.6108   -1.5125 H         1 <0>         0.0000
     35 H12         0.6847    0.2765   -1.6798 H         1 <0>         0.0000
     36 H13         2.6151    1.6893   -2.1758 H         1 <0>         0.0000
     37 H14         3.3304    1.3937   -0.5957 H         1 <0>         0.0000
     38 H15         2.9484    0.3859    1.4229 H         1 <0>         0.0000
     39 H16         0.5249    0.4957    0.8291 H         1 <0>         0.0000
     40 H17         3.7127    3.7195   -0.5296 H         1 <0>         0.0000
     41 H18        -0.4842   -1.3249   -0.2178 H         1 <0>         0.0000
     42 H19         0.0690   -1.7492    1.2550 H         1 <0>         0.0000
     43 H20        -0.1619   -0.8097    4.7623 H         1 <0>         0.0000
     44 H21         0.9480    0.8148    2.9078 H         1 <0>         0.0000
     45 H22         2.7041   -2.3378    0.6655 H         1 <0>         0.0000
@<TRIPOS>BOND
     1    1    2 ar
     2    1    3 ar
     3    2    5 ar
     4    3    6 ar
     5    4    5 ar
     6    4    6 ar
     7    5    7 1
     8    6   23 1
     9    7   17 am
    10    7   19 2
    11    8   13 1
    12    8   18 am
    13    8   20 2
    14    9   15 1
    15   10   15 1
    16   11   12 1
    17   11   14 1
    18   12   22 1
    19   13   14 1
    20   13   21 1
    21   14   16 1
    22   15   22 1
    23   17   18 1
    24    1   24 1
    25    2   25 1
    26    3   26 1
    27    4   27 1
    28    9   28 1
    29    9   29 1
    30    9   30 1
    31   10   31 1
    32   10   32 1
    33   10   33 1
    34   11   34 1
    35   11   35 1
    36   12   36 1
    37   12   37 1
    38   13   38 1
    39   14   39 1
    40   15   40 1
    41   16   41 1
    42   16   42 1
    43   17   43 1
    44   18   44 1
    45   21   45 1
@<TRIPOS>MOLECULE
LIGAND
   45    45     0     0     0
SMALL
NO_CHARGES

@<TRIPOS>ATOM
      1 C1         -1.7508   -1.5308    8.2465 C.ar      1 <0>         0.0000
      2 C2         -1.4530   -1.2202    6.9197 C.ar      1 <0>         0.0000
      3 C3         -0.8322   -1.2379    9.2545 C.ar      1 <0>         0.0000
      4 C4          0.6821   -0.3238    7.6089 C.ar      1 <0>         0.0000
      5 C5         -0.2366   -0.6167    6.6009 C.ar      1 <0>         0.0000
      6 C6          0.3843   -0.6344    8.9357 C.ar      1 <0>         0.0000
      7 C7          0.0801   -0.2867    5.1871 C.2       1 <0>         0.0000
      8 C8          1.9325   -1.0133    2.6768 C.2       1 <0>         0.0000
      9 C9         -3.5456    2.3208    3.0565 C.3       1 <0>         0.0000
     10 C10        -4.0220    0.6377    1.2453 C.3       1 <0>         0.0000
     11 C11         0.2195    0.8307    0.9188 C.3       1 <0>         0.0000
     12 C12        -1.0001    1.1700    0.0549 C.3       1 <0>         0.0000
     13 C13         2.3649   -0.5352    1.2935 C.3       1 <0>         0.0000
     14 C14         1.1534   -0.2750    0.3710 C.3       1 <0>         0.0000
     15 C15        -2.9459    1.4397    1.9673 C.3       1 <0>         0.0000
     16 N1          1.6681    0.0834   -0.9557 N.3       1 <0>         0.0000
     17 N2          1.4238   -0.2520    4.8674 N.am      1 <0>         0.0000
     18 N3          1.7877    0.0290    3.5734 N.am      1 <0>         0.0000
     19 O1         -0.8375   -0.0833    4.3961 O.2       1 <0>         0.0000
     20 O2          1.7602   -2.2018    2.9407 O.2       1 <0>         0.0000
     21 O3          3.2186   -1.5159    0.7230 O.3       1 <0>         0.0000
     22 S1         -2.0492    2.4644    0.7791 S.3       1 <0>         0.0000
     23 Cl1         1.5171   -0.2728   10.1801 Cl        1 <0>         0.0000
     24 H1         -2.6981   -2.0004    8.4946 H         1 <0>         0.0000
     25 H2         -2.1768   -1.4534    6.1430 H         1 <0>         0.0000
     26 H3         -1.0781   -1.4858   10.2839 H         1 <0>         0.0000
     27 H4          1.6301    0.1476    7.3573 H         1 <0>         0.0000
     28 H5         -4.2705    3.0197    2.6246 H         1 <0>         0.0000
     29 H6         -4.0763    1.7229    3.8059 H         1 <0>         0.0000
     30 H7         -2.7806    2.9152    3.5690 H         1 <0>         0.0000
     31 H8         -4.7543    1.3108    0.7855 H         1 <0>         0.0000
     32 H9         -4.5673   -0.0125    1.9385 H         1 <0>         0.0000
     33 H10        -3.6015    0.0146    0.4477 H         1 <0>         0.0000
     34 H11        -0.1531    0.5335    1.9082 H         1 <0>         0.0000
     35 H12         0.7975    1.7493    1.0822 H         1 <0>         0.0000
     36 H13        -1.6176    0.2727   -0.0585 H         1 <0>         0.0000
     37 H14        -0.7009    1.4813   -0.9501 H         1 <0>         0.0000
     38 H15         2.9484    0.3859    1.4229 H         1 <0>         0.0000
     39 H16         0.5915   -1.2082    0.2610 H         1 <0>         0.0000
     40 H17        -2.2253    0.7496    2.4190 H         1 <0>         0.0000
     41 H18         0.8845    0.1717   -1.5934 H         1 <0>         0.0000
     42 H19         2.2416   -0.6802   -1.2969 H         1 <0>         0.0000
     43 H20         2.1281   -0.4306    5.5750 H         1 <0>         0.0000
     44 H21         1.9478    0.9869    3.2798 H         1 <0>         0.0000
     45 H22         2.7041   -2.3378    0.6655 H         1 <0>         0.0000
@<TRIPOS>BOND
     1    1    2 ar
     2    1    3 ar
     3    2    5 ar
     4    3    6 ar
     5    4    5 ar
     6    4    6 ar
     7    5    7 1
     8    6   23 1
     9    7   17 am
    10    7   19 2
    11    8   13 1
    12    8   18 am
    13    8   20 2
    14    9   15 1
    15   10   15 1
    16   11   12 1
    17   11   14 1
    18   12   22 1
    19   13   14 1
    20   13   21 1
    21   14   16 1
    22   15   22 1
    23   17   18 1
    24    1   24 1
    25    2   25 1
    26    3   26 1
    27    4   27 1
    28    9   28 1
    29    9   29 1
    30    9   30 1
    31   10   31 1
    32   10   32 1
    33   10   33 1
    34   11   34 1
    35   11   35 1
    36   12   36 1
    37   12   37 1
    38   13   38 1
    39   14   39 1
    40   15   40 1
    41   16   41 1
    42   16   42 1
    43   17   43 1
    44   18   44 1
    45   21   45 1
@<TRIPOS>MOLECULE
LIGAND
   45    45     0     0     0
SMALL
NO_CHARGES

@<TRIPOS>ATOM
      1 C1          2.3494   -1.9340    9.0709 C.ar      1 <0>         0.0000
      2 C2          2.6184   -1.6158    7.7398 C.ar      1 <0>         0.0000
      3 C3          2.2507   -3.2692    9.4627 C.ar      1 <0>         0.0000
      4 C4          2.6898   -3.9679    7.1920 C.ar      1 <0>         0.0000
      5 C5          2.7886   -2.6327    6.8003 C.ar      1 <0>         0.0000
      6 C6          2.4209   -4.2860    8.5232 C.ar      1 <0>         0.0000
      7 C7          3.0744   -2.2928    5.3823 C.2       1 <0>         0.0000
      8 C8          1.9325   -1.0133    2.6768 C.2       1 <0>         0.0000
      9 C9         -1.3566    4.2423   -1.1718 C.3       1 <0>         0.0000
     10 C10        -1.3823    5.0762    1.2040 C.3       1 <0>         0.0000
     11 C11         0.2195    0.8307    0.9188 C.3       1 <0>         0.0000
     12 C12        -1.0001    1.1700    0.0549 C.3       1 <0>         0.0000
     13 C13         2.3649   -0.5352    1.2935 C.3       1 <0>         0.0000
     14 C14         1.1534   -0.2750    0.3710 C.3       1 <0>         0.0000
     15 C15        -1.0699    3.9009    0.2855 C.3       1 <0>         0.0000
     16 N1          1.6681    0.0834   -0.9557 N.3       1 <0>         0.0000
     17 N2          2.6023   -1.0670    4.9540 N.am      1 <0>         0.0000
     18 N3          2.8469   -0.6810    3.6590 N.am      1 <0>         0.0000
     19 O1          3.7083   -3.0847    4.6892 O.2       1 <0>         0.0000
     20 O2          0.8915   -1.6405    2.8632 O.2       1 <0>         0.0000
     21 O3          3.2186   -1.5159    0.7230 O.3       1 <0>         0.0000
     22 S1         -2.0492    2.4644    0.7791 S.3       1 <0>         0.0000
     23 Cl1         2.2994   -5.9333    9.0073 Cl        1 <0>         0.0000
     24 H1          2.2173   -1.1422    9.8023 H         1 <0>         0.0000
     25 H2          2.6929   -0.5718    7.4466 H         1 <0>         0.0000
     26 H3          2.0407   -3.5019   10.5034 H         1 <0>         0.0000
     27 H4          2.8236   -4.7591    6.4570 H         1 <0>         0.0000
     28 H5         -2.4105    4.5137   -1.2989 H         1 <0>         0.0000
     29 H6         -0.7576    5.0967   -1.5064 H         1 <0>         0.0000
     30 H7         -1.1520    3.3963   -1.8378 H         1 <0>         0.0000
     31 H8         -2.4367    5.3604    1.1134 H         1 <0>         0.0000
     32 H9         -0.7841    5.9563    0.9431 H         1 <0>         0.0000
     33 H10        -1.1964    4.8333    2.2564 H         1 <0>         0.0000
     34 H11        -0.1531    0.5335    1.9082 H         1 <0>         0.0000
     35 H12         0.7975    1.7493    1.0822 H         1 <0>         0.0000
     36 H13        -1.6176    0.2727   -0.0585 H         1 <0>         0.0000
     37 H14        -0.7009    1.4813   -0.9501 H         1 <0>         0.0000
     38 H15         2.9484    0.3859    1.4229 H         1 <0>         0.0000
     39 H16         0.5915   -1.2082    0.2610 H         1 <0>         0.0000
     40 H17        -0.0132    3.6330    0.3910 H         1 <0>         0.0000
     41 H18         0.8845    0.1717   -1.5934 H         1 <0>         0.0000
     42 H19         2.2416   -0.6802   -1.2969 H         1 <0>         0.0000
     43 H20         2.0849   -0.4638    5.5841 H         1 <0>         0.0000
     44 H21         3.6858   -0.1599    3.4266 H         1 <0>         0.0000
     45 H22         2.7041   -2.3378    0.6655 H         1 <0>         0.0000
@<TRIPOS>BOND
     1    1    2 ar
     2    1    3 ar
     3    2    5 ar
     4    3    6 ar
     5    4    5 ar
     6    4    6 ar
     7    5    7 1
     8    6   23 1
     9    7   17 am
    10    7   19 2
    11    8   13 1
    12    8   18 am
    13    8   20 2
    14    9   15 1
    15   10   15 1
    16   11   12 1
    17   11   14 1
    18   12   22 1
    19   13   14 1
    20   13   21 1
    21   14   16 1
    22   15   22 1
    23   17   18 1
    24    1   24 1
    25    2   25 1
    26    3   26 1
    27    4   27 1
    28    9   28 1
    29    9   29 1
    30    9   30 1
    31   10   31 1
    32   10   32 1
    33   10   33 1
    34   11   34 1
    35   11   35 1
    36   12   36 1
    37   12   37 1
    38   13   38 1
    39   14   39 1
    40   15   40 1
    41   16   41 1
    42   16   42 1
    43   17   43 1
    44   18   44 1
    45   21   45 1
@<TRIPOS>MOLECULE
LIGAND
   45    45     0     0     0
SMALL
NO_CHARGES

@<TRIPOS>ATOM
      1 C1         -1.0489   -4.6607    7.0939 C.ar      1 <0>         0.0000
      2 C2         -0.5063   -4.1726    5.9053 C.ar      1 <0>         0.0000
      3 C3         -0.2082   -5.1260    8.1051 C.ar      1 <0>         0.0000
      4 C4          1.7177   -4.6153    6.7388 C.ar      1 <0>         0.0000
      5 C5          0.8770   -4.1499    5.7277 C.ar      1 <0>         0.0000
      6 C6          1.1751   -5.1033    7.9275 C.ar      1 <0>         0.0000
      7 C7          1.4542   -3.6304    4.4609 C.2       1 <0>         0.0000
      8 C8          1.9325   -1.0133    2.6768 C.2       1 <0>         0.0000
      9 C9         -4.0623    0.8550    1.3177 C.3       1 <0>         0.0000
     10 C10        -3.5584   -1.5885    1.6583 C.3       1 <0>         0.0000
     11 C11         0.2195    0.8307    0.9188 C.3       1 <0>         0.0000
     12 C12        -1.0001    1.1700    0.0549 C.3       1 <0>         0.0000
     13 C13         2.3649   -0.5352    1.2935 C.3       1 <0>         0.0000
     14 C14         1.1534   -0.2750    0.3710 C.3       1 <0>         0.0000
     15 C15        -2.9754   -0.2124    1.3599 C.3       1 <0>         0.0000
     16 N1          1.6681    0.0834   -0.9557 N.3       1 <0>         0.0000
     17 N2          0.6851   -2.6985    3.7909 N.am      1 <0>         0.0000
     18 N3          1.1665   -2.1628    2.6216 N.am      1 <0>         0.0000
     19 O1          2.5559   -4.0300    4.0926 O.2       1 <0>         0.0000
     20 O2          2.2299   -0.4108    3.7066 O.2       1 <0>         0.0000
     21 O3          3.2186   -1.5159    0.7230 O.3       1 <0>         0.0000
     22 S1         -2.0977   -0.2515   -0.2193 S.3       1 <0>         0.0000
     23 Cl1         2.2119   -5.6772    9.1758 Cl        1 <0>         0.0000
     24 H1         -2.1260   -4.6780    7.2321 H         1 <0>         0.0000
     25 H2         -1.1717   -3.8129    5.1246 H         1 <0>         0.0000
     26 H3         -0.6454   -5.5034    9.0259 H         1 <0>         0.0000
     27 H4          2.7965   -4.5959    6.5977 H         1 <0>         0.0000
     28 H5         -4.8019    0.6148    0.5457 H         1 <0>         0.0000
     29 H6         -4.5966    0.9180    2.2722 H         1 <0>         0.0000
     30 H7         -3.6542    1.8453    1.0855 H         1 <0>         0.0000
     31 H8         -4.2902   -1.8663    0.8915 H         1 <0>         0.0000
     32 H9         -4.0769   -1.6012    2.6234 H         1 <0>         0.0000
     33 H10        -2.7856   -2.3656    1.6725 H         1 <0>         0.0000
     34 H11        -0.1531    0.5335    1.9082 H         1 <0>         0.0000
     35 H12         0.7975    1.7493    1.0822 H         1 <0>         0.0000
     36 H13        -0.6573    1.5138   -0.9268 H         1 <0>         0.0000
     37 H14        -1.5832    1.9849    0.4933 H         1 <0>         0.0000
     38 H15         2.9484    0.3859    1.4229 H         1 <0>         0.0000
     39 H16         0.5915   -1.2082    0.2610 H         1 <0>         0.0000
     40 H17        -2.2476    0.0460    2.1366 H         1 <0>         0.0000
     41 H18         0.8845    0.1717   -1.5934 H         1 <0>         0.0000
     42 H19         2.2416   -0.6802   -1.2969 H         1 <0>         0.0000
     43 H20        -0.2179   -2.4154    4.1557 H         1 <0>         0.0000
     44 H21         0.9630   -2.6038    1.7309 H         1 <0>         0.0000
     45 H22         2.7041   -2.3378    0.6655 H         1 <0>         0.0000
@<TRIPOS>BOND
     1    1    2 ar
     2    1    3 ar
     3    2    5 ar
     4    3    6 ar
     5    4    5 ar
     6    4    6 ar
     7    5    7 1
     8    6   23 1
     9    7   17 am
    10    7   19 2
    11    8   13 1
    12    8   18 am
    13    8   20 2
    14    9   15 1
    15   10   15 1
    16   11   12 1
    17   11   14 1
    18   12   22 1
    19   13   14 1
    20   13   21 1
    21   14   16 1
    22   15   22 1
    23   17   18 1
    24    1   24 1
    25    2   25 1
    26    3   26 1
    27    4   27 1
    28    9   28 1
    29    9   29 1
    30    9   30 1
    31   10   31 1
    32   10   32 1
    33   10   33 1
    34   11   34 1
    35   11   35 1
    36   12   36 1
    37   12   37 1
    38   13   38 1
    39   14   39 1
    40   15   40 1
    41   16   41 1
    42   16   42 1
    43   17   43 1
    44   18   44 1
    45   21   45 1
@<TRIPOS>MOLECULE
LIGAND
   45    45     0     0     0
SMALL
NO_CHARGES

@<TRIPOS>ATOM
      1 C1         -2.3305   -2.8430    7.5352 C.ar      1 <0>         0.0000
      2 C2         -1.8950   -2.2446    6.3529 C.ar      1 <0>         0.0000
      3 C3         -1.8838   -4.1195    7.8766 C.ar      1 <0>         0.0000
      4 C4         -0.5660   -4.1993    5.8532 C.ar      1 <0>         0.0000
      5 C5         -1.0128   -2.9227    5.5119 C.ar      1 <0>         0.0000
      6 C6         -1.0015   -4.7977    7.0355 C.ar      1 <0>         0.0000
      7 C7         -0.5498   -2.2848    4.2523 C.2       1 <0>         0.0000
      8 C8          1.9325   -1.0133    2.6768 C.2       1 <0>         0.0000
      9 C9         -2.8396    0.6809   -2.6742 C.3       1 <0>         0.0000
     10 C10        -4.6560   -0.1960   -1.1670 C.3       1 <0>         0.0000
     11 C11         0.2195    0.8307    0.9188 C.3       1 <0>         0.0000
     12 C12        -1.0001    1.1700    0.0549 C.3       1 <0>         0.0000
     13 C13         2.3649   -0.5352    1.2935 C.3       1 <0>         0.0000
     14 C14         1.1534   -0.2750    0.3710 C.3       1 <0>         0.0000
     15 C15        -3.3416    0.5718   -1.2395 C.3       1 <0>         0.0000
     16 N1          1.6681    0.0834   -0.9557 N.3       1 <0>         0.0000
     17 N2          0.6851   -2.6985    3.7909 N.am      1 <0>         0.0000
     18 N3          1.1665   -2.1628    2.6216 N.am      1 <0>         0.0000
     19 O1         -1.2703   -1.4609    3.6944 O.2       1 <0>         0.0000
     20 O2          2.2299   -0.4108    3.7066 O.2       1 <0>         0.0000
     21 O3          3.2186   -1.5159    0.7230 O.3       1 <0>         0.0000
     22 S1         -2.0977   -0.2515   -0.2193 S.3       1 <0>         0.0000
     23 Cl1        -0.4502   -6.3727    7.4576 Cl        1 <0>         0.0000
     24 H1         -3.0172   -2.3146    8.1901 H         1 <0>         0.0000
     25 H2         -2.2503   -1.2495    6.0977 H         1 <0>         0.0000
     26 H3         -2.2317   -4.5731    8.8010 H         1 <0>         0.0000
     27 H4          0.1227   -4.7258    5.1954 H         1 <0>         0.0000
     28 H5         -2.6847   -0.3167   -3.1002 H         1 <0>         0.0000
     29 H6         -3.5648    1.1984   -3.3121 H         1 <0>         0.0000
     30 H7         -1.8850    1.2160   -2.7338 H         1 <0>         0.0000
     31 H8         -4.5291   -1.2071   -1.5698 H         1 <0>         0.0000
     32 H9         -5.4375    0.2943   -1.7580 H         1 <0>         0.0000
     33 H10        -5.0153   -0.2952   -0.1363 H         1 <0>         0.0000
     34 H11        -0.1531    0.5335    1.9082 H         1 <0>         0.0000
     35 H12         0.7975    1.7493    1.0822 H         1 <0>         0.0000
     36 H13        -0.6573    1.5138   -0.9268 H         1 <0>         0.0000
     37 H14        -1.5832    1.9849    0.4933 H         1 <0>         0.0000
     38 H15         2.9484    0.3859    1.4229 H         1 <0>         0.0000
     39 H16         0.5915   -1.2082    0.2610 H         1 <0>         0.0000
     40 H17        -3.4899    1.5778   -0.8328 H         1 <0>         0.0000
     41 H18         0.8845    0.1717   -1.5934 H         1 <0>         0.0000
     42 H19         2.2416   -0.6802   -1.2969 H         1 <0>         0.0000
     43 H20         1.2257   -3.3847    4.3060 H         1 <0>         0.0000
     44 H21         0.9630   -2.6038    1.7309 H         1 <0>         0.0000
     45 H22         2.7041   -2.3378    0.6655 H         1 <0>         0.0000
@<TRIPOS>BOND
     1    1    2 ar
     2    1    3 ar
     3    2    5 ar
     4    3    6 ar
     5    4    5 ar
     6    4    6 ar
     7    5    7 1
     8    6   23 1
     9    7   17 am
    10    7   19 2
    11    8   13 1
    12    8   18 am
    13    8   20 2
    14    9   15 1
    15   10   15 1
    16   11   12 1
    17   11   14 1
    18   12   22 1
    19   13   14 1
    20   13   21 1
    21   14   16 1
    22   15   22 1
    23   17   18 1
    24    1   24 1
    25    2   25 1
    26    3   26 1
    27    4   27 1
    28    9   28 1
    29    9   29 1
    30    9   30 1
    31   10   31 1
    32   10   32 1
    33   10   33 1
    34   11   34 1
    35   11   35 1
    36   12   36 1
    37   12   37 1
    38   13   38 1
    39   14   39 1
    40   15   40 1
    41   16   41 1
    42   16   42 1
    43   17   43 1
    44   18   44 1
    45   21   45 1
@<TRIPOS>MOLECULE
LIGAND
   45    45     0     0     0
SMALL
NO_CHARGES

@<TRIPOS>ATOM
      1 C1          2.3084   -2.0825    9.0344 C.ar      1 <0>         0.0000
      2 C2          2.5351   -1.6185    7.7387 C.ar      1 <0>         0.0000
      3 C3          1.1971   -1.6371    9.7503 C.ar      1 <0>         0.0000
      4 C4          0.5395   -0.2636    7.8747 C.ar      1 <0>         0.0000
      5 C5          1.6507   -0.7090    7.1588 C.ar      1 <0>         0.0000
      6 C6          0.3127   -0.7276    9.1704 C.ar      1 <0>         0.0000
      7 C7          1.8934   -0.2148    5.7787 C.2       1 <0>         0.0000
      8 C8          1.9325   -1.0133    2.6768 C.2       1 <0>         0.0000
      9 C9         -4.2967    1.3927   -0.3375 C.3       1 <0>         0.0000
     10 C10        -4.0071    3.8901   -0.4781 C.3       1 <0>         0.0000
     11 C11         0.2195    0.8307    0.9188 C.3       1 <0>         0.0000
     12 C12        -1.0001    1.1700    0.0549 C.3       1 <0>         0.0000
     13 C13         2.3649   -0.5352    1.2935 C.3       1 <0>         0.0000
     14 C14         1.1534   -0.2750    0.3710 C.3       1 <0>         0.0000
     15 C15        -3.3066    2.5373   -0.5169 C.3       1 <0>         0.0000
     16 N1          1.6681    0.0834   -0.9557 N.3       1 <0>         0.0000
     17 N2          2.6023   -1.0670    4.9540 N.am      1 <0>         0.0000
     18 N3          2.8469   -0.6810    3.6590 N.am      1 <0>         0.0000
     19 O1          1.4534    0.8829    5.4461 O.2       1 <0>         0.0000
     20 O2          0.8915   -1.6405    2.8632 O.2       1 <0>         0.0000
     21 O3          3.2186   -1.5159    0.7230 O.3       1 <0>         0.0000
     22 S1         -2.0492    2.4644    0.7791 S.3       1 <0>         0.0000
     23 Cl1        -1.0586   -0.1788   10.0541 Cl        1 <0>         0.0000
     24 H1          2.9969   -2.7909    9.4856 H         1 <0>         0.0000
     25 H2          3.4046   -1.9729    7.1910 H         1 <0>         0.0000
     26 H3          1.0333   -2.0074   10.7590 H         1 <0>         0.0000
     27 H4         -0.1491    0.4455    7.4196 H         1 <0>         0.0000
     28 H5         -4.8186    1.4878    0.6213 H         1 <0>         0.0000
     29 H6         -5.0586    1.3975   -1.1249 H         1 <0>         0.0000
     30 H7         -3.7990    0.4164   -0.3457 H         1 <0>         0.0000
     31 H8         -4.5245    4.0235    0.4785 H         1 <0>         0.0000
     32 H9         -4.7599    3.9723   -1.2700 H         1 <0>         0.0000
     33 H10        -3.2998    4.7201   -0.5881 H         1 <0>         0.0000
     34 H11        -0.1531    0.5335    1.9082 H         1 <0>         0.0000
     35 H12         0.7975    1.7493    1.0822 H         1 <0>         0.0000
     36 H13        -1.6176    0.2727   -0.0585 H         1 <0>         0.0000
     37 H14        -0.7009    1.4813   -0.9501 H         1 <0>         0.0000
     38 H15         2.9484    0.3859    1.4229 H         1 <0>         0.0000
     39 H16         0.5915   -1.2082    0.2610 H         1 <0>         0.0000
     40 H17        -2.7965    2.4239   -1.4795 H         1 <0>         0.0000
     41 H18         0.8845    0.1717   -1.5934 H         1 <0>         0.0000
     42 H19         2.2416   -0.6802   -1.2969 H         1 <0>         0.0000
     43 H20         2.9356   -1.9607    5.2985 H         1 <0>         0.0000
     44 H21         3.6858   -0.1599    3.4266 H         1 <0>         0.0000
     45 H22         2.7041   -2.3378    0.6655 H         1 <0>         0.0000
@<TRIPOS>BOND
     1    1    2 ar
     2    1    3 ar
     3    2    5 ar
     4    3    6 ar
     5    4    5 ar
     6    4    6 ar
     7    5    7 1
     8    6   23 1
     9    7   17 am
    10    7   19 2
    11    8   13 1
    12    8   18 am
    13    8   20 2
    14    9   15 1
    15   10   15 1
    16   11   12 1
    17   11   14 1
    18   12   22 1
    19   13   14 1
    20   13   21 1
    21   14   16 1
    22   15   22 1
    23   17   18 1
    24    1   24 1
    25    2   25 1
    26    3   26 1
    27    4   27 1
    28    9   28 1
    29    9   29 1
    30    9   30 1
    31   10   31 1
    32   10   32 1
    33   10   33 1
    34   11   34 1
    35   11   35 1
    36   12   36 1
    37   12   37 1
    38   13   38 1
    39   14   39 1
    40   15   40 1
    41   16   41 1
    42   16   42 1
    43   17   43 1
    44   18   44 1
    45   21   45 1
@<TRIPOS>MOLECULE
LIGAND
   45    45     0     0     0
SMALL
NO_CHARGES

@<TRIPOS>ATOM
      1 C1          1.2491   -0.2643    9.4993 C.ar      1 <0>         0.0000
      2 C2          1.4776    0.1988    8.2036 C.ar      1 <0>         0.0000
      3 C3          1.1939   -1.6354    9.7503 C.ar      1 <0>         0.0000
      4 C4          1.5955   -2.0801    7.4098 C.ar      1 <0>         0.0000
      5 C5          1.6507   -0.7090    7.1588 C.ar      1 <0>         0.0000
      6 C6          1.3670   -2.5432    8.7056 C.ar      1 <0>         0.0000
      7 C7          1.8934   -0.2148    5.7787 C.2       1 <0>         0.0000
      8 C8          1.9325   -1.0133    2.6768 C.2       1 <0>         0.0000
      9 C9         -4.2967    1.3927   -0.3375 C.3       1 <0>         0.0000
     10 C10        -4.0071    3.8901   -0.4781 C.3       1 <0>         0.0000
     11 C11         0.2195    0.8307    0.9188 C.3       1 <0>         0.0000
     12 C12        -1.0001    1.1700    0.0549 C.3       1 <0>         0.0000
     13 C13         2.3649   -0.5352    1.2935 C.3       1 <0>         0.0000
     14 C14         1.1534   -0.2750    0.3710 C.3       1 <0>         0.0000
     15 C15        -3.3066    2.5373   -0.5169 C.3       1 <0>         0.0000
     16 N1          1.6681    0.0834   -0.9557 N.3       1 <0>         0.0000
     17 N2          2.6023   -1.0670    4.9540 N.am      1 <0>         0.0000
     18 N3          2.8469   -0.6810    3.6590 N.am      1 <0>         0.0000
     19 O1          1.4534    0.8829    5.4461 O.2       1 <0>         0.0000
     20 O2          0.8915   -1.6405    2.8632 O.2       1 <0>         0.0000
     21 O3          3.2186   -1.5159    0.7230 O.3       1 <0>         0.0000
     22 S1         -2.0492    2.4644    0.7791 S.3       1 <0>         0.0000
     23 Cl1         1.2993   -4.2348    9.0161 Cl        1 <0>         0.0000
     24 H1          1.1146    0.4426   10.3126 H         1 <0>         0.0000
     25 H2          1.5183    1.2695    8.0204 H         1 <0>         0.0000
     26 H3          1.0151   -1.9815   10.7651 H         1 <0>         0.0000
     27 H4          1.7315   -2.7860    6.5930 H         1 <0>         0.0000
     28 H5         -4.8186    1.4878    0.6213 H         1 <0>         0.0000
     29 H6         -5.0586    1.3975   -1.1249 H         1 <0>         0.0000
     30 H7         -3.7990    0.4164   -0.3457 H         1 <0>         0.0000
     31 H8         -4.5245    4.0235    0.4785 H         1 <0>         0.0000
     32 H9         -4.7599    3.9723   -1.2700 H         1 <0>         0.0000
     33 H10        -3.2998    4.7201   -0.5881 H         1 <0>         0.0000
     34 H11        -0.1531    0.5335    1.9082 H         1 <0>         0.0000
     35 H12         0.7975    1.7493    1.0822 H         1 <0>         0.0000
     36 H13        -1.6176    0.2727   -0.0585 H         1 <0>         0.0000
     37 H14        -0.7009    1.4813   -0.9501 H         1 <0>         0.0000
     38 H15         2.9484    0.3859    1.4229 H         1 <0>         0.0000
     39 H16         0.5915   -1.2082    0.2610 H         1 <0>         0.0000
     40 H17        -2.7965    2.4239   -1.4795 H         1 <0>         0.0000
     41 H18         0.8845    0.1717   -1.5934 H         1 <0>         0.0000
     42 H19         2.2416   -0.6802   -1.2969 H         1 <0>         0.0000
     43 H20         2.9356   -1.9607    5.2985 H         1 <0>         0.0000
     44 H21         3.6858   -0.1599    3.4266 H         1 <0>         0.0000
     45 H22         2.7041   -2.3378    0.6655 H         1 <0>         0.0000
@<TRIPOS>BOND
     1    1    2 ar
     2    1    3 ar
     3    2    5 ar
     4    3    6 ar
     5    4    5 ar
     6    4    6 ar
     7    5    7 1
     8    6   23 1
     9    7   17 am
    10    7   19 2
    11    8   13 1
    12    8   18 am
    13    8   20 2
    14    9   15 1
    15   10   15 1
    16   11   12 1
    17   11   14 1
    18   12   22 1
    19   13   14 1
    20   13   21 1
    21   14   16 1
    22   15   22 1
    23   17   18 1
    24    1   24 1
    25    2   25 1
    26    3   26 1
    27    4   27 1
    28    9   28 1
    29    9   29 1
    30    9   30 1
    31   10   31 1
    32   10   32 1
    33   10   33 1
    34   11   34 1
    35   11   35 1
    36   12   36 1
    37   12   37 1
    38   13   38 1
    39   14   39 1
    40   15   40 1
    41   16   41 1
    42   16   42 1
    43   17   43 1
    44   18   44 1
    45   21   45 1
@<TRIPOS>MOLECULE
LIGAND
   45    45     0     0     0
SMALL
NO_CHARGES

@<TRIPOS>ATOM
      1 C1          0.6850   -5.9098    7.3717 C.ar      1 <0>         0.0000
      2 C2          1.2259   -5.4217    6.1822 C.ar      1 <0>         0.0000
      3 C3         -0.2049   -5.1263    8.1065 C.ar      1 <0>         0.0000
      4 C4         -0.0128   -3.3664    6.4625 C.ar      1 <0>         0.0000
      5 C5          0.8770   -4.1499    5.7277 C.ar      1 <0>         0.0000
      6 C6         -0.5537   -3.8546    7.6520 C.ar      1 <0>         0.0000
      7 C7          1.4542   -3.6304    4.4609 C.2       1 <0>         0.0000
      8 C8          1.9325   -1.0133    2.6768 C.2       1 <0>         0.0000
      9 C9         -4.0623    0.8550    1.3177 C.3       1 <0>         0.0000
     10 C10        -3.5584   -1.5885    1.6583 C.3       1 <0>         0.0000
     11 C11         0.2195    0.8307    0.9188 C.3       1 <0>         0.0000
     12 C12        -1.0001    1.1700    0.0549 C.3       1 <0>         0.0000
     13 C13         2.3649   -0.5352    1.2935 C.3       1 <0>         0.0000
     14 C14         1.1534   -0.2750    0.3710 C.3       1 <0>         0.0000
     15 C15        -2.9754   -0.2124    1.3599 C.3       1 <0>         0.0000
     16 N1          1.6681    0.0834   -0.9557 N.3       1 <0>         0.0000
     17 N2          0.6851   -2.6985    3.7909 N.am      1 <0>         0.0000
     18 N3          1.1665   -2.1628    2.6216 N.am      1 <0>         0.0000
     19 O1          2.5559   -4.0300    4.0926 O.2       1 <0>         0.0000
     20 O2          2.2299   -0.4108    3.7066 O.2       1 <0>         0.0000
     21 O3          3.2186   -1.5159    0.7230 O.3       1 <0>         0.0000
     22 S1         -2.0977   -0.2515   -0.2193 S.3       1 <0>         0.0000
     23 Cl1        -1.6522   -2.8885    8.5590 Cl        1 <0>         0.0000
     24 H1          0.9565   -6.9001    7.7252 H         1 <0>         0.0000
     25 H2          1.9183   -6.0415    5.6185 H         1 <0>         0.0000
     26 H3         -0.6183   -5.5200    9.0315 H         1 <0>         0.0000
     27 H4         -0.2836   -2.3748    6.1052 H         1 <0>         0.0000
     28 H5         -4.8019    0.6148    0.5457 H         1 <0>         0.0000
     29 H6         -4.5966    0.9180    2.2722 H         1 <0>         0.0000
     30 H7         -3.6542    1.8453    1.0855 H         1 <0>         0.0000
     31 H8         -4.2902   -1.8663    0.8915 H         1 <0>         0.0000
     32 H9         -4.0769   -1.6012    2.6234 H         1 <0>         0.0000
     33 H10        -2.7856   -2.3656    1.6725 H         1 <0>         0.0000
     34 H11        -0.1531    0.5335    1.9082 H         1 <0>         0.0000
     35 H12         0.7975    1.7493    1.0822 H         1 <0>         0.0000
     36 H13        -0.6573    1.5138   -0.9268 H         1 <0>         0.0000
     37 H14        -1.5832    1.9849    0.4933 H         1 <0>         0.0000
     38 H15         2.9484    0.3859    1.4229 H         1 <0>         0.0000
     39 H16         0.5915   -1.2082    0.2610 H         1 <0>         0.0000
     40 H17        -2.2476    0.0460    2.1366 H         1 <0>         0.0000
     41 H18         0.8845    0.1717   -1.5934 H         1 <0>         0.0000
     42 H19         2.2416   -0.6802   -1.2969 H         1 <0>         0.0000
     43 H20        -0.2179   -2.4154    4.1557 H         1 <0>         0.0000
     44 H21         0.9630   -2.6038    1.7309 H         1 <0>         0.0000
     45 H22         2.7041   -2.3378    0.6655 H         1 <0>         0.0000
@<TRIPOS>BOND
     1    1    2 ar
     2    1    3 ar
     3    2    5 ar
     4    3    6 ar
     5    4    5 ar
     6    4    6 ar
     7    5    7 1
     8    6   23 1
     9    7   17 am
    10    7   19 2
    11    8   13 1
    12    8   18 am
    13    8   20 2
    14    9   15 1
    15   10   15 1
    16   11   12 1
    17   11   14 1
    18   12   22 1
    19   13   14 1
    20   13   21 1
    21   14   16 1
    22   15   22 1
    23   17   18 1
    24    1   24 1
    25    2   25 1
    26    3   26 1
    27    4   27 1
    28    9   28 1
    29    9   29 1
    30    9   30 1
    31   10   31 1
    32   10   32 1
    33   10   33 1
    34   11   34 1
    35   11   35 1
    36   12   36 1
    37   12   37 1
    38   13   38 1
    39   14   39 1
    40   15   40 1
    41   16   41 1
    42   16   42 1
    43   17   43 1
    44   18   44 1
    45   21   45 1
@<TRIPOS>MOLECULE
LIGAND
   45    45     0     0     0
SMALL
NO_CHARGES

@<TRIPOS>ATOM
      1 C1          1.4050   -2.4049    8.7677 C.ar      1 <0>         0.0000
      2 C2          1.6744   -2.0859    7.4368 C.ar      1 <0>         0.0000
      3 C3          2.2499   -3.2707    9.4621 C.ar      1 <0>         0.0000
      4 C4          3.6334   -3.4986    7.4947 C.ar      1 <0>         0.0000
      5 C5          2.7886   -2.6327    6.8003 C.ar      1 <0>         0.0000
      6 C6          3.3641   -3.8176    8.8256 C.ar      1 <0>         0.0000
      7 C7          3.0744   -2.2928    5.3823 C.2       1 <0>         0.0000
      8 C8          1.9325   -1.0133    2.6768 C.2       1 <0>         0.0000
      9 C9          0.0309    6.1524    1.8816 C.3       1 <0>         0.0000
     10 C10         1.7102    4.7140    3.0862 C.3       1 <0>         0.0000
     11 C11         0.2195    0.8307    0.9188 C.3       1 <0>         0.0000
     12 C12         0.8590    2.2074    1.1305 C.3       1 <0>         0.0000
     13 C13         2.3649   -0.5352    1.2935 C.3       1 <0>         0.0000
     14 C14         1.1534   -0.2750    0.3710 C.3       1 <0>         0.0000
     15 C15         0.8241    4.8515    1.8540 C.3       1 <0>         0.0000
     16 N1          1.6681    0.0834   -0.9557 N.3       1 <0>         0.0000
     17 N2          2.6023   -1.0670    4.9540 N.am      1 <0>         0.0000
     18 N3          2.8469   -0.6810    3.6590 N.am      1 <0>         0.0000
     19 O1          3.7083   -3.0847    4.6892 O.2       1 <0>         0.0000
     20 O2          0.8915   -1.6405    2.8632 O.2       1 <0>         0.0000
     21 O3          3.2186   -1.5159    0.7230 O.3       1 <0>         0.0000
     22 S1         -0.3102    3.4478    1.7590 S.3       1 <0>         0.0000
     23 Cl1         4.4064   -4.8856    9.6833 Cl        1 <0>         0.0000
     24 H1          0.5376   -1.9787    9.2631 H         1 <0>         0.0000
     25 H2          1.0086   -1.4100    6.9061 H         1 <0>         0.0000
     26 H3          2.0273   -3.5102   10.4987 H         1 <0>         0.0000
     27 H4          4.5022   -3.9233    6.9958 H         1 <0>         0.0000
     28 H5         -0.6040    6.1923    2.7738 H         1 <0>         0.0000
     29 H6          0.6947    7.0236    1.9150 H         1 <0>         0.0000
     30 H7         -0.6232    6.2512    1.0077 H         1 <0>         0.0000
     31 H8          1.1011    4.7317    3.9969 H         1 <0>         0.0000
     32 H9          2.4261    5.5404    3.1569 H         1 <0>         0.0000
     33 H10         2.2708    3.7722    3.0836 H         1 <0>         0.0000
     34 H11        -0.6259    0.9652    0.2307 H         1 <0>         0.0000
     35 H12        -0.2197    0.5004    1.8688 H         1 <0>         0.0000
     36 H13         1.2423    2.5738    0.1722 H         1 <0>         0.0000
     37 H14         1.7108    2.1489    1.8142 H         1 <0>         0.0000
     38 H15         2.9484    0.3859    1.4229 H         1 <0>         0.0000
     39 H16         0.5915   -1.2082    0.2610 H         1 <0>         0.0000
     40 H17         1.4510    4.8315    0.9561 H         1 <0>         0.0000
     41 H18         0.8845    0.1717   -1.5934 H         1 <0>         0.0000
     42 H19         2.2416   -0.6802   -1.2969 H         1 <0>         0.0000
     43 H20         2.0849   -0.4638    5.5841 H         1 <0>         0.0000
     44 H21         3.6858   -0.1599    3.4266 H         1 <0>         0.0000
     45 H22         2.7041   -2.3378    0.6655 H         1 <0>         0.0000
@<TRIPOS>BOND
     1    1    2 ar
     2    1    3 ar
     3    2    5 ar
     4    3    6 ar
     5    4    5 ar
     6    4    6 ar
     7    5    7 1
     8    6   23 1
     9    7   17 am
    10    7   19 2
    11    8   13 1
    12    8   18 am
    13    8   20 2
    14    9   15 1
    15   10   15 1
    16   11   12 1
    17   11   14 1
    18   12   22 1
    19   13   14 1
    20   13   21 1
    21   14   16 1
    22   15   22 1
    23   17   18 1
    24    1   24 1
    25    2   25 1
    26    3   26 1
    27    4   27 1
    28    9   28 1
    29    9   29 1
    30    9   30 1
    31   10   31 1
    32   10   32 1
    33   10   33 1
    34   11   34 1
    35   11   35 1
    36   12   36 1
    37   12   37 1
    38   13   38 1
    39   14   39 1
    40   15   40 1
    41   16   41 1
    42   16   42 1
    43   17   43 1
    44   18   44 1
    45   21   45 1
@<TRIPOS>MOLECULE
LIGAND
   45    45     0     0     0
SMALL
NO_CHARGES

@<TRIPOS>ATOM
      1 C1          0.3098   -0.7270    9.1684 C.ar      1 <0>         0.0000
      2 C2          0.5387   -0.2630    7.8731 C.ar      1 <0>         0.0000
      3 C3          1.1930   -1.6369    9.7496 C.ar      1 <0>         0.0000
      4 C4          2.5339   -1.6190    7.7400 C.ar      1 <0>         0.0000
      5 C5          1.6507   -0.7090    7.1588 C.ar      1 <0>         0.0000
      6 C6          2.3050   -2.0829    9.0354 C.ar      1 <0>         0.0000
      7 C7          1.8934   -0.2148    5.7787 C.2       1 <0>         0.0000
      8 C8          1.9325   -1.0133    2.6768 C.2       1 <0>         0.0000
      9 C9          0.9492    3.5395    4.1781 C.3       1 <0>         0.0000
     10 C10        -1.5671    3.4454    4.1811 C.3       1 <0>         0.0000
     11 C11         0.2195    0.8307    0.9188 C.3       1 <0>         0.0000
     12 C12         0.8590    2.2074    1.1305 C.3       1 <0>         0.0000
     13 C13         2.3649   -0.5352    1.2935 C.3       1 <0>         0.0000
     14 C14         1.1534   -0.2750    0.3710 C.3       1 <0>         0.0000
     15 C15        -0.2901    2.9668    3.5009 C.3       1 <0>         0.0000
     16 N1          1.6681    0.0834   -0.9557 N.3       1 <0>         0.0000
     17 N2          2.6023   -1.0670    4.9540 N.am      1 <0>         0.0000
     18 N3          2.8469   -0.6810    3.6590 N.am      1 <0>         0.0000
     19 O1          1.4534    0.8829    5.4461 O.2       1 <0>         0.0000
     20 O2          0.8915   -1.6405    2.8632 O.2       1 <0>         0.0000
     21 O3          3.2186   -1.5159    0.7230 O.3       1 <0>         0.0000
     22 S1         -0.3102    3.4478    1.7590 S.3       1 <0>         0.0000
     23 Cl1         3.3947   -3.2053    9.7533 Cl        1 <0>         0.0000
     24 H1         -0.5558   -0.3793    9.7245 H         1 <0>         0.0000
     25 H2         -0.1567    0.4458    7.4309 H         1 <0>         0.0000
     26 H3          1.0018   -1.9896   10.7598 H         1 <0>         0.0000
     27 H4          3.4009   -1.9648    7.1806 H         1 <0>         0.0000
     28 H5          0.9275    4.6347    4.1481 H         1 <0>         0.0000
     29 H6          1.0005    3.2436    5.2319 H         1 <0>         0.0000
     30 H7          1.8721    3.2151    3.6839 H         1 <0>         0.0000
     31 H8         -1.6274    4.5391    4.1512 H         1 <0>         0.0000
     32 H9         -1.5938    3.1464    5.2349 H         1 <0>         0.0000
     33 H10        -2.4642    3.0528    3.6891 H         1 <0>         0.0000
     34 H11        -0.6259    0.9652    0.2307 H         1 <0>         0.0000
     35 H12        -0.2197    0.5004    1.8688 H         1 <0>         0.0000
     36 H13         1.2423    2.5738    0.1722 H         1 <0>         0.0000
     37 H14         1.7108    2.1489    1.8142 H         1 <0>         0.0000
     38 H15         2.9484    0.3859    1.4229 H         1 <0>         0.0000
     39 H16         0.5915   -1.2082    0.2610 H         1 <0>         0.0000
     40 H17        -0.2491    1.8731    3.5416 H         1 <0>         0.0000
     41 H18         0.8845    0.1717   -1.5934 H         1 <0>         0.0000
     42 H19         2.2416   -0.6802   -1.2969 H         1 <0>         0.0000
     43 H20         2.9356   -1.9607    5.2985 H         1 <0>         0.0000
     44 H21         3.6858   -0.1599    3.4266 H         1 <0>         0.0000
     45 H22         2.7041   -2.3378    0.6655 H         1 <0>         0.0000
@<TRIPOS>BOND
     1    1    2 ar
     2    1    3 ar
     3    2    5 ar
     4    3    6 ar
     5    4    5 ar
     6    4    6 ar
     7    5    7 1
     8    6   23 1
     9    7   17 am
    10    7   19 2
    11    8   13 1
    12    8   18 am
    13    8   20 2
    14    9   15 1
    15   10   15 1
    16   11   12 1
    17   11   14 1
    18   12   22 1
    19   13   14 1
    20   13   21 1
    21   14   16 1
    22   15   22 1
    23   17   18 1
    24    1   24 1
    25    2   25 1
    26    3   26 1
    27    4   27 1
    28    9   28 1
    29    9   29 1
    30    9   30 1
    31   10   31 1
    32   10   32 1
    33   10   33 1
    34   11   34 1
    35   11   35 1
    36   12   36 1
    37   12   37 1
    38   13   38 1
    39   14   39 1
    40   15   40 1
    41   16   41 1
    42   16   42 1
    43   17   43 1
    44   18   44 1
    45   21   45 1
@<TRIPOS>MOLECULE
LIGAND
   45    45     0     0     0
SMALL
NO_CHARGES

@<TRIPOS>ATOM
      1 C1          1.3177   -0.8505    9.3642 C.ar      1 <0>         0.0000
      2 C2          1.8364   -0.5518    8.1043 C.ar      1 <0>         0.0000
      3 C3         -0.0628   -0.9206    9.5514 C.ar      1 <0>         0.0000
      4 C4         -0.4059   -0.3930    7.2188 C.ar      1 <0>         0.0000
      5 C5          0.9746   -0.3231    7.0316 C.ar      1 <0>         0.0000
      6 C6         -0.9246   -0.6918    8.4788 C.ar      1 <0>         0.0000
      7 C7          1.5280   -0.0043    5.6900 C.2       1 <0>         0.0000
      8 C8          1.9325   -1.0133    2.6768 C.2       1 <0>         0.0000
      9 C9          2.7221    4.6042   -2.2190 C.3       1 <0>         0.0000
     10 C10         2.5092    5.3544    0.1752 C.3       1 <0>         0.0000
     11 C11         1.5761    0.1765   -1.0474 C.3       1 <0>         0.0000
     12 C12         2.3784    1.4800   -1.1273 C.3       1 <0>         0.0000
     13 C13         2.3649   -0.5352    1.2935 C.3       1 <0>         0.0000
     14 C14         1.1534   -0.2750    0.3710 C.3       1 <0>         0.0000
     15 C15         2.7418    4.1721   -0.7577 C.3       1 <0>         0.0000
     16 N1          0.3597   -1.5080    0.3138 N.3       1 <0>         0.0000
     17 N2          0.7320   -0.3536    4.6161 N.am      1 <0>         0.0000
     18 N3          1.1743   -0.0714    3.3469 N.am      1 <0>         0.0000
     19 O1          2.6215    0.5492    5.6056 O.2       1 <0>         0.0000
     20 O2          2.2555   -2.1109    3.1269 O.2       1 <0>         0.0000
     21 O3          3.2186   -1.5159    0.7230 O.3       1 <0>         0.0000
     22 S1          1.4741    2.9151   -0.4766 S.3       1 <0>         0.0000
     23 Cl1        -2.6279   -0.7789    8.7104 Cl        1 <0>         0.0000
     24 H1          1.9889   -1.0289   10.1992 H         1 <0>         0.0000
     25 H2          2.9139   -0.5000    7.9709 H         1 <0>         0.0000
     26 H3         -0.4524   -1.1543   10.5388 H         1 <0>         0.0000
     27 H4         -1.0758   -0.2147    6.3801 H         1 <0>         0.0000
     28 H5          1.7574    5.0604   -2.4680 H         1 <0>         0.0000
     29 H6          3.4979    5.3502   -2.4247 H         1 <0>         0.0000
     30 H7          2.8703    3.7569   -2.8981 H         1 <0>         0.0000
     31 H8          1.5412    5.8221   -0.0370 H         1 <0>         0.0000
     32 H9          3.2784    6.1235    0.0438 H         1 <0>         0.0000
     33 H10         2.5035    5.0496    1.2280 H         1 <0>         0.0000
     34 H11         2.1843   -0.6108   -1.5125 H         1 <0>         0.0000
     35 H12         0.6847    0.2765   -1.6798 H         1 <0>         0.0000
     36 H13         2.6151    1.6893   -2.1758 H         1 <0>         0.0000
     37 H14         3.3304    1.3937   -0.5957 H         1 <0>         0.0000
     38 H15         2.9484    0.3859    1.4229 H         1 <0>         0.0000
     39 H16         0.5249    0.4957    0.8291 H         1 <0>         0.0000
     40 H17         3.7127    3.7195   -0.5296 H         1 <0>         0.0000
     41 H18        -0.4842   -1.3249   -0.2178 H         1 <0>         0.0000
     42 H19         0.0690   -1.7492    1.2550 H         1 <0>         0.0000
     43 H20        -0.1619   -0.8097    4.7623 H         1 <0>         0.0000
     44 H21         0.9480    0.8148    2.9078 H         1 <0>         0.0000
     45 H22         2.7041   -2.3378    0.6655 H         1 <0>         0.0000
@<TRIPOS>BOND
     1    1    2 ar
     2    1    3 ar
     3    2    5 ar
     4    3    6 ar
     5    4    5 ar
     6    4    6 ar
     7    5    7 1
     8    6   23 1
     9    7   17 am
    10    7   19 2
    11    8   13 1
    12    8   18 am
    13    8   20 2
    14    9   15 1
    15   10   15 1
    16   11   12 1
    17   11   14 1
    18   12   22 1
    19   13   14 1
    20   13   21 1
    21   14   16 1
    22   15   22 1
    23   17   18 1
    24    1   24 1
    25    2   25 1
    26    3   26 1
    27    4   27 1
    28    9   28 1
    29    9   29 1
    30    9   30 1
    31   10   31 1
    32   10   32 1
    33   10   33 1
    34   11   34 1
    35   11   35 1
    36   12   36 1
    37   12   37 1
    38   13   38 1
    39   14   39 1
    40   15   40 1
    41   16   41 1
    42   16   42 1
    43   17   43 1
    44   18   44 1
    45   21   45 1
@<TRIPOS>MOLECULE
LIGAND
   45    45     0     0     0
SMALL
NO_CHARGES

@<TRIPOS>ATOM
      1 C1         -2.8134   -3.6397    6.9542 C.ar      1 <0>         0.0000
      2 C2         -2.3780   -3.0405    5.7723 C.ar      1 <0>         0.0000
      3 C3         -1.8836   -4.1212    7.8758 C.ar      1 <0>         0.0000
      4 C4         -0.0829   -3.4042    6.4334 C.ar      1 <0>         0.0000
      5 C5         -1.0128   -2.9227    5.5119 C.ar      1 <0>         0.0000
      6 C6         -0.5183   -4.0035    7.6154 C.ar      1 <0>         0.0000
      7 C7         -0.5498   -2.2848    4.2523 C.2       1 <0>         0.0000
      8 C8          1.9325   -1.0133    2.6768 C.2       1 <0>         0.0000
      9 C9          0.9492    3.5395    4.1781 C.3       1 <0>         0.0000
     10 C10        -1.5671    3.4454    4.1811 C.3       1 <0>         0.0000
     11 C11         0.2195    0.8307    0.9188 C.3       1 <0>         0.0000
     12 C12         0.8590    2.2074    1.1305 C.3       1 <0>         0.0000
     13 C13         2.3649   -0.5352    1.2935 C.3       1 <0>         0.0000
     14 C14         1.1534   -0.2750    0.3710 C.3       1 <0>         0.0000
     15 C15        -0.2901    2.9668    3.5009 C.3       1 <0>         0.0000
     16 N1          1.6681    0.0834   -0.9557 N.3       1 <0>         0.0000
     17 N2          0.6851   -2.6985    3.7909 N.am      1 <0>         0.0000
     18 N3          1.1665   -2.1628    2.6216 N.am      1 <0>         0.0000
     19 O1         -1.2703   -1.4609    3.6944 O.2       1 <0>         0.0000
     20 O2          2.2299   -0.4108    3.7066 O.2       1 <0>         0.0000
     21 O3          3.2186   -1.5159    0.7230 O.3       1 <0>         0.0000
     22 S1         -0.3102    3.4478    1.7590 S.3       1 <0>         0.0000
     23 Cl1         0.6285   -4.5974    8.7532 Cl        1 <0>         0.0000
     24 H1         -3.8765   -3.7310    7.1569 H         1 <0>         0.0000
     25 H2         -3.1122   -2.6692    5.0619 H         1 <0>         0.0000
     26 H3         -2.2377   -4.5858    8.7924 H         1 <0>         0.0000
     27 H4          0.9816   -3.3106    6.2279 H         1 <0>         0.0000
     28 H5          0.9275    4.6347    4.1481 H         1 <0>         0.0000
     29 H6          1.0005    3.2436    5.2319 H         1 <0>         0.0000
     30 H7          1.8721    3.2151    3.6839 H         1 <0>         0.0000
     31 H8         -1.6274    4.5391    4.1512 H         1 <0>         0.0000
     32 H9         -1.5938    3.1464    5.2349 H         1 <0>         0.0000
     33 H10        -2.4642    3.0528    3.6891 H         1 <0>         0.0000
     34 H11        -0.6259    0.9652    0.2307 H         1 <0>         0.0000
     35 H12        -0.2197    0.5004    1.8688 H         1 <0>         0.0000
     36 H13         1.2423    2.5738    0.1722 H         1 <0>         0.0000
     37 H14         1.7108    2.1489    1.8142 H         1 <0>         0.0000
     38 H15         2.9484    0.3859    1.4229 H         1 <0>         0.0000
     39 H16         0.5915   -1.2082    0.2610 H         1 <0>         0.0000
     40 H17        -0.2491    1.8731    3.5416 H         1 <0>         0.0000
     41 H18         0.8845    0.1717   -1.5934 H         1 <0>         0.0000
     42 H19         2.2416   -0.6802   -1.2969 H         1 <0>         0.0000
     43 H20         1.2257   -3.3847    4.3060 H         1 <0>         0.0000
     44 H21         0.9630   -2.6038    1.7309 H         1 <0>         0.0000
     45 H22         2.7041   -2.3378    0.6655 H         1 <0>         0.0000
@<TRIPOS>BOND
     1    1    2 ar
     2    1    3 ar
     3    2    5 ar
     4    3    6 ar
     5    4    5 ar
     6    4    6 ar
     7    5    7 1
     8    6   23 1
     9    7   17 am
    10    7   19 2
    11    8   13 1
    12    8   18 am
    13    8   20 2
    14    9   15 1
    15   10   15 1
    16   11   12 1
    17   11   14 1
    18   12   22 1
    19   13   14 1
    20   13   21 1
    21   14   16 1
    22   15   22 1
    23   17   18 1
    24    1   24 1
    25    2   25 1
    26    3   26 1
    27    4   27 1
    28    9   28 1
    29    9   29 1
    30    9   30 1
    31   10   31 1
    32   10   32 1
    33   10   33 1
    34   11   34 1
    35   11   35 1
    36   12   36 1
    37   12   37 1
    38   13   38 1
    39   14   39 1
    40   15   40 1
    41   16   41 1
    42   16   42 1
    43   17   43 1
    44   18   44 1
    45   21   45 1
@<TRIPOS>MOLECULE
LIGAND
   45    45     0     0     0
SMALL
NO_CHARGES

@<TRIPOS>ATOM
      1 C1          3.3047   -0.8664    9.7081 C.ar      1 <0>         0.0000
      2 C2          3.6057   -0.4258    8.4194 C.ar      1 <0>         0.0000
      3 C3          2.1622   -1.6344    9.9335 C.ar      1 <0>         0.0000
      4 C4          1.6219   -1.5209    7.5815 C.ar      1 <0>         0.0000
      5 C5          2.7643   -0.7530    7.3561 C.ar      1 <0>         0.0000
      6 C6          1.3208   -1.9616    8.8702 C.ar      1 <0>         0.0000
      7 C7          3.0854   -0.2826    5.9837 C.2       1 <0>         0.0000
      8 C8          1.9325   -1.0133    2.6768 C.2       1 <0>         0.0000
      9 C9          0.0309    6.1524    1.8816 C.3       1 <0>         0.0000
     10 C10         1.7102    4.7140    3.0862 C.3       1 <0>         0.0000
     11 C11         0.2195    0.8307    0.9188 C.3       1 <0>         0.0000
     12 C12         0.8590    2.2074    1.1305 C.3       1 <0>         0.0000
     13 C13         2.3649   -0.5352    1.2935 C.3       1 <0>         0.0000
     14 C14         1.1534   -0.2750    0.3710 C.3       1 <0>         0.0000
     15 C15         0.8241    4.8515    1.8540 C.3       1 <0>         0.0000
     16 N1          1.6681    0.0834   -0.9557 N.3       1 <0>         0.0000
     17 N2          2.6023   -1.0670    4.9540 N.am      1 <0>         0.0000
     18 N3          2.8469   -0.6810    3.6590 N.am      1 <0>         0.0000
     19 O1          3.7293    0.7533    5.8374 O.2       1 <0>         0.0000
     20 O2          0.8915   -1.6405    2.8632 O.2       1 <0>         0.0000
     21 O3          3.2186   -1.5159    0.7230 O.3       1 <0>         0.0000
     22 S1         -0.3102    3.4478    1.7590 S.3       1 <0>         0.0000
     23 Cl1        -0.0884   -2.9097    9.1490 Cl        1 <0>         0.0000
     24 H1          3.9601   -0.6118   10.5358 H         1 <0>         0.0000
     25 H2          4.4987    0.1721    8.2563 H         1 <0>         0.0000
     26 H3          1.9405   -1.9706   10.9431 H         1 <0>         0.0000
     27 H4          0.9676   -1.7751    6.7500 H         1 <0>         0.0000
     28 H5         -0.6040    6.1923    2.7738 H         1 <0>         0.0000
     29 H6          0.6947    7.0236    1.9150 H         1 <0>         0.0000
     30 H7         -0.6232    6.2512    1.0077 H         1 <0>         0.0000
     31 H8          1.1011    4.7317    3.9969 H         1 <0>         0.0000
     32 H9          2.4261    5.5404    3.1569 H         1 <0>         0.0000
     33 H10         2.2708    3.7722    3.0836 H         1 <0>         0.0000
     34 H11        -0.6259    0.9652    0.2307 H         1 <0>         0.0000
     35 H12        -0.2197    0.5004    1.8688 H         1 <0>         0.0000
     36 H13         1.2423    2.5738    0.1722 H         1 <0>         0.0000
     37 H14         1.7108    2.1489    1.8142 H         1 <0>         0.0000
     38 H15         2.9484    0.3859    1.4229 H         1 <0>         0.0000
     39 H16         0.5915   -1.2082    0.2610 H         1 <0>         0.0000
     40 H17         1.4510    4.8315    0.9561 H         1 <0>         0.0000
     41 H18         0.8845    0.1717   -1.5934 H         1 <0>         0.0000
     42 H19         2.2416   -0.6802   -1.2969 H         1 <0>         0.0000
     43 H20         2.0769   -1.9119    5.1509 H         1 <0>         0.0000
     44 H21         3.6858   -0.1599    3.4266 H         1 <0>         0.0000
     45 H22         2.7041   -2.3378    0.6655 H         1 <0>         0.0000
@<TRIPOS>BOND
     1    1    2 ar
     2    1    3 ar
     3    2    5 ar
     4    3    6 ar
     5    4    5 ar
     6    4    6 ar
     7    5    7 1
     8    6   23 1
     9    7   17 am
    10    7   19 2
    11    8   13 1
    12    8   18 am
    13    8   20 2
    14    9   15 1
    15   10   15 1
    16   11   12 1
    17   11   14 1
    18   12   22 1
    19   13   14 1
    20   13   21 1
    21   14   16 1
    22   15   22 1
    23   17   18 1
    24    1   24 1
    25    2   25 1
    26    3   26 1
    27    4   27 1
    28    9   28 1
    29    9   29 1
    30    9   30 1
    31   10   31 1
    32   10   32 1
    33   10   33 1
    34   11   34 1
    35   11   35 1
    36   12   36 1
    37   12   37 1
    38   13   38 1
    39   14   39 1
    40   15   40 1
    41   16   41 1
    42   16   42 1
    43   17   43 1
    44   18   44 1
    45   21   45 1
@<TRIPOS>MOLECULE
LIGAND
   45    45     0     0     0
SMALL
NO_CHARGES

@<TRIPOS>ATOM
      1 C1          3.3674   -3.8174    8.8247 C.ar      1 <0>         0.0000
      2 C2          3.6347   -3.4983    7.4934 C.ar      1 <0>         0.0000
      3 C3          2.2539   -3.2710    9.4629 C.ar      1 <0>         0.0000
      4 C4          1.6751   -2.0863    7.4384 C.ar      1 <0>         0.0000
      5 C5          2.7886   -2.6327    6.8003 C.ar      1 <0>         0.0000
      6 C6          1.4078   -2.4054    8.7697 C.ar      1 <0>         0.0000
      7 C7          3.0744   -2.2928    5.3823 C.2       1 <0>         0.0000
      8 C8          1.9325   -1.0133    2.6768 C.2       1 <0>         0.0000
      9 C9          0.9992    5.4655    0.4702 C.3       1 <0>         0.0000
     10 C10         0.2949    5.8734    2.8530 C.3       1 <0>         0.0000
     11 C11         0.2195    0.8307    0.9188 C.3       1 <0>         0.0000
     12 C12         0.8590    2.2074    1.1305 C.3       1 <0>         0.0000
     13 C13         2.3649   -0.5352    1.2935 C.3       1 <0>         0.0000
     14 C14         1.1534   -0.2750    0.3710 C.3       1 <0>         0.0000
     15 C15         0.8241    4.8515    1.8540 C.3       1 <0>         0.0000
     16 N1          1.6681    0.0834   -0.9557 N.3       1 <0>         0.0000
     17 N2          2.6023   -1.0670    4.9540 N.am      1 <0>         0.0000
     18 N3          2.8469   -0.6810    3.6590 N.am      1 <0>         0.0000
     19 O1          3.7083   -3.0847    4.6892 O.2       1 <0>         0.0000
     20 O2          0.8915   -1.6405    2.8632 O.2       1 <0>         0.0000
     21 O3          3.2186   -1.5159    0.7230 O.3       1 <0>         0.0000
     22 S1         -0.3102    3.4478    1.7590 S.3       1 <0>         0.0000
     23 Cl1         0.0337   -1.7319    9.5577 Cl        1 <0>         0.0000
     24 H1          4.0262   -4.4916    9.3641 H         1 <0>         0.0000
     25 H2          4.5055   -3.9303    7.0070 H         1 <0>         0.0000
     26 H3          2.0583   -3.5288   10.5005 H         1 <0>         0.0000
     27 H4          1.0164   -1.4117    6.8951 H         1 <0>         0.0000
     28 H5          0.0422    5.8509    0.1009 H         1 <0>         0.0000
     29 H6          1.7019    6.3059    0.4928 H         1 <0>         0.0000
     30 H7          1.3622    4.7326   -0.2594 H         1 <0>         0.0000
     31 H8         -0.6729    6.2651    2.5204 H         1 <0>         0.0000
     32 H9          0.9758    6.7263    2.9496 H         1 <0>         0.0000
     33 H10         0.1486    5.4355    3.8470 H         1 <0>         0.0000
     34 H11        -0.6259    0.9652    0.2307 H         1 <0>         0.0000
     35 H12        -0.2197    0.5004    1.8688 H         1 <0>         0.0000
     36 H13         1.2423    2.5738    0.1722 H         1 <0>         0.0000
     37 H14         1.7108    2.1489    1.8142 H         1 <0>         0.0000
     38 H15         2.9484    0.3859    1.4229 H         1 <0>         0.0000
     39 H16         0.5915   -1.2082    0.2610 H         1 <0>         0.0000
     40 H17         1.7903    4.4730    2.2043 H         1 <0>         0.0000
     41 H18         0.8845    0.1717   -1.5934 H         1 <0>         0.0000
     42 H19         2.2416   -0.6802   -1.2969 H         1 <0>         0.0000
     43 H20         2.0849   -0.4638    5.5841 H         1 <0>         0.0000
     44 H21         3.6858   -0.1599    3.4266 H         1 <0>         0.0000
     45 H22         2.7041   -2.3378    0.6655 H         1 <0>         0.0000
@<TRIPOS>BOND
     1    1    2 ar
     2    1    3 ar
     3    2    5 ar
     4    3    6 ar
     5    4    5 ar
     6    4    6 ar
     7    5    7 1
     8    6   23 1
     9    7   17 am
    10    7   19 2
    11    8   13 1
    12    8   18 am
    13    8   20 2
    14    9   15 1
    15   10   15 1
    16   11   12 1
    17   11   14 1
    18   12   22 1
    19   13   14 1
    20   13   21 1
    21   14   16 1
    22   15   22 1
    23   17   18 1
    24    1   24 1
    25    2   25 1
    26    3   26 1
    27    4   27 1
    28    9   28 1
    29    9   29 1
    30    9   30 1
    31   10   31 1
    32   10   32 1
    33   10   33 1
    34   11   34 1
    35   11   35 1
    36   12   36 1
    37   12   37 1
    38   13   38 1
    39   14   39 1
    40   15   40 1
    41   16   41 1
    42   16   42 1
    43   17   43 1
    44   18   44 1
    45   21   45 1
@<TRIPOS>MOLECULE
LIGAND
   45    45     0     0     0
SMALL
NO_CHARGES

@<TRIPOS>ATOM
      1 C1          2.3494   -1.9340    9.0709 C.ar      1 <0>         0.0000
      2 C2          2.6184   -1.6158    7.7398 C.ar      1 <0>         0.0000
      3 C3          2.2507   -3.2692    9.4627 C.ar      1 <0>         0.0000
      4 C4          2.6898   -3.9679    7.1920 C.ar      1 <0>         0.0000
      5 C5          2.7886   -2.6327    6.8003 C.ar      1 <0>         0.0000
      6 C6          2.4209   -4.2860    8.5232 C.ar      1 <0>         0.0000
      7 C7          3.0744   -2.2928    5.3823 C.2       1 <0>         0.0000
      8 C8          1.9325   -1.0133    2.6768 C.2       1 <0>         0.0000
      9 C9          0.0309    6.1524    1.8816 C.3       1 <0>         0.0000
     10 C10         1.7102    4.7140    3.0862 C.3       1 <0>         0.0000
     11 C11         0.2195    0.8307    0.9188 C.3       1 <0>         0.0000
     12 C12         0.8590    2.2074    1.1305 C.3       1 <0>         0.0000
     13 C13         2.3649   -0.5352    1.2935 C.3       1 <0>         0.0000
     14 C14         1.1534   -0.2750    0.3710 C.3       1 <0>         0.0000
     15 C15         0.8241    4.8515    1.8540 C.3       1 <0>         0.0000
     16 N1          1.6681    0.0834   -0.9557 N.3       1 <0>         0.0000
     17 N2          2.6023   -1.0670    4.9540 N.am      1 <0>         0.0000
     18 N3          2.8469   -0.6810    3.6590 N.am      1 <0>         0.0000
     19 O1          3.7083   -3.0847    4.6892 O.2       1 <0>         0.0000
     20 O2          0.8915   -1.6405    2.8632 O.2       1 <0>         0.0000
     21 O3          3.2186   -1.5159    0.7230 O.3       1 <0>         0.0000
     22 S1         -0.3102    3.4478    1.7590 S.3       1 <0>         0.0000
     23 Cl1         2.2994   -5.9333    9.0073 Cl        1 <0>         0.0000
     24 H1          2.2173   -1.1422    9.8023 H         1 <0>         0.0000
     25 H2          2.6929   -0.5718    7.4466 H         1 <0>         0.0000
     26 H3          2.0407   -3.5019   10.5034 H         1 <0>         0.0000
     27 H4          2.8236   -4.7591    6.4570 H         1 <0>         0.0000
     28 H5         -0.6040    6.1923    2.7738 H         1 <0>         0.0000
     29 H6          0.6947    7.0236    1.9150 H         1 <0>         0.0000
     30 H7         -0.6232    6.2512    1.0077 H         1 <0>         0.0000
     31 H8          1.1011    4.7317    3.9969 H         1 <0>         0.0000
     32 H9          2.4261    5.5404    3.1569 H         1 <0>         0.0000
     33 H10         2.2708    3.7722    3.0836 H         1 <0>         0.0000
     34 H11        -0.6259    0.9652    0.2307 H         1 <0>         0.0000
     35 H12        -0.2197    0.5004    1.8688 H         1 <0>         0.0000
     36 H13         1.2423    2.5738    0.1722 H         1 <0>         0.0000
     37 H14         1.7108    2.1489    1.8142 H         1 <0>         0.0000
     38 H15         2.9484    0.3859    1.4229 H         1 <0>         0.0000
     39 H16         0.5915   -1.2082    0.2610 H         1 <0>         0.0000
     40 H17         1.4510    4.8315    0.9561 H         1 <0>         0.0000
     41 H18         0.8845    0.1717   -1.5934 H         1 <0>         0.0000
     42 H19         2.2416   -0.6802   -1.2969 H         1 <0>         0.0000
     43 H20         2.0849   -0.4638    5.5841 H         1 <0>         0.0000
     44 H21         3.6858   -0.1599    3.4266 H         1 <0>         0.0000
     45 H22         2.7041   -2.3378    0.6655 H         1 <0>         0.0000
@<TRIPOS>BOND
     1    1    2 ar
     2    1    3 ar
     3    2    5 ar
     4    3    6 ar
     5    4    5 ar
     6    4    6 ar
     7    5    7 1
     8    6   23 1
     9    7   17 am
    10    7   19 2
    11    8   13 1
    12    8   18 am
    13    8   20 2
    14    9   15 1
    15   10   15 1
    16   11   12 1
    17   11   14 1
    18   12   22 1
    19   13   14 1
    20   13   21 1
    21   14   16 1
    22   15   22 1
    23   17   18 1
    24    1   24 1
    25    2   25 1
    26    3   26 1
    27    4   27 1
    28    9   28 1
    29    9   29 1
    30    9   30 1
    31   10   31 1
    32   10   32 1
    33   10   33 1
    34   11   34 1
    35   11   35 1
    36   12   36 1
    37   12   37 1
    38   13   38 1
    39   14   39 1
    40   15   40 1
    41   16   41 1
    42   16   42 1
    43   17   43 1
    44   18   44 1
    45   21   45 1
@<TRIPOS>MOLECULE
LIGAND
   45    45     0     0     0
SMALL
NO_CHARGES

@<TRIPOS>ATOM
      1 C1          1.7949   -2.7138    8.7492 C.ar      1 <0>         0.0000
      2 C2          2.1171   -2.3438    7.4435 C.ar      1 <0>         0.0000
      3 C3          2.6888   -2.4547    9.7883 C.ar      1 <0>         0.0000
      4 C4          4.2272   -1.4558    8.2158 C.ar      1 <0>         0.0000
      5 C5          3.3333   -1.7148    7.1768 C.ar      1 <0>         0.0000
      6 C6          3.9049   -1.8257    9.5216 C.ar      1 <0>         0.0000
      7 C7          3.6760   -1.3216    5.7855 C.2       1 <0>         0.0000
      8 C8          1.9325   -1.0133    2.6768 C.2       1 <0>         0.0000
      9 C9         -3.5953   -0.8020   -2.4330 C.3       1 <0>         0.0000
     10 C10        -4.0047    1.3935   -1.2699 C.3       1 <0>         0.0000
     11 C11         0.2195    0.8307    0.9188 C.3       1 <0>         0.0000
     12 C12        -1.0001    1.1700    0.0549 C.3       1 <0>         0.0000
     13 C13         2.3649   -0.5352    1.2935 C.3       1 <0>         0.0000
     14 C14         1.1534   -0.2750    0.3710 C.3       1 <0>         0.0000
     15 C15        -2.9606    0.3632   -1.6834 C.3       1 <0>         0.0000
     16 N1          1.6681    0.0834   -0.9557 N.3       1 <0>         0.0000
     17 N2          2.6023   -1.0670    4.9540 N.am      1 <0>         0.0000
     18 N3          2.8469   -0.6810    3.6590 N.am      1 <0>         0.0000
     19 O1          4.8567   -1.2304    5.4589 O.2       1 <0>         0.0000
     20 O2          0.8915   -1.6405    2.8632 O.2       1 <0>         0.0000
     21 O3          3.2186   -1.5159    0.7230 O.3       1 <0>         0.0000
     22 S1         -2.0977   -0.2515   -0.2193 S.3       1 <0>         0.0000
     23 Cl1         5.0072   -1.5059   10.8043 Cl        1 <0>         0.0000
     24 H1          0.8479   -3.2031    8.9567 H         1 <0>         0.0000
     25 H2          1.4125   -2.5511    6.6423 H         1 <0>         0.0000
     26 H3          2.4241   -2.7487   10.8007 H         1 <0>         0.0000
     27 H4          5.1749   -0.9645    8.0049 H         1 <0>         0.0000
     28 H5         -4.3436   -1.2969   -1.8040 H         1 <0>         0.0000
     29 H6         -4.1065   -0.4613   -3.3404 H         1 <0>         0.0000
     30 H7         -2.8540   -1.5571   -2.7183 H         1 <0>         0.0000
     31 H8         -4.7593    0.9323   -0.6229 H         1 <0>         0.0000
     32 H9         -4.5284    1.8023   -2.1412 H         1 <0>         0.0000
     33 H10        -3.5593    2.2264   -0.7139 H         1 <0>         0.0000
     34 H11        -0.1531    0.5335    1.9082 H         1 <0>         0.0000
     35 H12         0.7975    1.7493    1.0822 H         1 <0>         0.0000
     36 H13        -0.6573    1.5138   -0.9268 H         1 <0>         0.0000
     37 H14        -1.5832    1.9849    0.4933 H         1 <0>         0.0000
     38 H15         2.9484    0.3859    1.4229 H         1 <0>         0.0000
     39 H16         0.5915   -1.2082    0.2610 H         1 <0>         0.0000
     40 H17        -2.2171    0.8435   -2.3283 H         1 <0>         0.0000
     41 H18         0.8845    0.1717   -1.5934 H         1 <0>         0.0000
     42 H19         2.2416   -0.6802   -1.2969 H         1 <0>         0.0000
     43 H20         1.6516   -1.1634    5.2936 H         1 <0>         0.0000
     44 H21         3.6858   -0.1599    3.4266 H         1 <0>         0.0000
     45 H22         2.7041   -2.3378    0.6655 H         1 <0>         0.0000
@<TRIPOS>BOND
     1    1    2 ar
     2    1    3 ar
     3    2    5 ar
     4    3    6 ar
     5    4    5 ar
     6    4    6 ar
     7    5    7 1
     8    6   23 1
     9    7   17 am
    10    7   19 2
    11    8   13 1
    12    8   18 am
    13    8   20 2
    14    9   15 1
    15   10   15 1
    16   11   12 1
    17   11   14 1
    18   12   22 1
    19   13   14 1
    20   13   21 1
    21   14   16 1
    22   15   22 1
    23   17   18 1
    24    1   24 1
    25    2   25 1
    26    3   26 1
    27    4   27 1
    28    9   28 1
    29    9   29 1
    30    9   30 1
    31   10   31 1
    32   10   32 1
    33   10   33 1
    34   11   34 1
    35   11   35 1
    36   12   36 1
    37   12   37 1
    38   13   38 1
    39   14   39 1
    40   15   40 1
    41   16   41 1
    42   16   42 1
    43   17   43 1
    44   18   44 1
    45   21   45 1
@<TRIPOS>MOLECULE
LIGAND
   45    45     0     0     0
SMALL
NO_CHARGES

@<TRIPOS>ATOM
      1 C1          1.1782   -5.1016    7.9278 C.ar      1 <0>         0.0000
      2 C2          1.7191   -4.6144    6.7380 C.ar      1 <0>         0.0000
      3 C3         -0.2050   -5.1246    8.1072 C.ar      1 <0>         0.0000
      4 C4         -0.5061   -4.1728    5.9071 C.ar      1 <0>         0.0000
      5 C5          0.8770   -4.1499    5.7277 C.ar      1 <0>         0.0000
      6 C6         -1.0471   -4.6601    7.0968 C.ar      1 <0>         0.0000
      7 C7          1.4542   -3.6304    4.4609 C.2       1 <0>         0.0000
      8 C8          1.9325   -1.0133    2.6768 C.2       1 <0>         0.0000
      9 C9         -4.0623    0.8550    1.3177 C.3       1 <0>         0.0000
     10 C10        -3.5584   -1.5885    1.6583 C.3       1 <0>         0.0000
     11 C11         0.2195    0.8307    0.9188 C.3       1 <0>         0.0000
     12 C12        -1.0001    1.1700    0.0549 C.3       1 <0>         0.0000
     13 C13         2.3649   -0.5352    1.2935 C.3       1 <0>         0.0000
     14 C14         1.1534   -0.2750    0.3710 C.3       1 <0>         0.0000
     15 C15        -2.9754   -0.2124    1.3599 C.3       1 <0>         0.0000
     16 N1          1.6681    0.0834   -0.9557 N.3       1 <0>         0.0000
     17 N2          0.6851   -2.6985    3.7909 N.am      1 <0>         0.0000
     18 N3          1.1665   -2.1628    2.6216 N.am      1 <0>         0.0000
     19 O1          2.5559   -4.0300    4.0926 O.2       1 <0>         0.0000
     20 O2          2.2299   -0.4108    3.7066 O.2       1 <0>         0.0000
     21 O3          3.2186   -1.5159    0.7230 O.3       1 <0>         0.0000
     22 S1         -2.0977   -0.2515   -0.2193 S.3       1 <0>         0.0000
     23 Cl1        -2.7537   -4.6891    7.3187 Cl        1 <0>         0.0000
     24 H1          1.8340   -5.4635    8.7141 H         1 <0>         0.0000
     25 H2          2.7985   -4.6015    6.6100 H         1 <0>         0.0000
     26 H3         -0.6121   -5.5071    9.0396 H         1 <0>         0.0000
     27 H4         -1.1607   -3.8103    5.1170 H         1 <0>         0.0000
     28 H5         -4.8019    0.6148    0.5457 H         1 <0>         0.0000
     29 H6         -4.5966    0.9180    2.2722 H         1 <0>         0.0000
     30 H7         -3.6542    1.8453    1.0855 H         1 <0>         0.0000
     31 H8         -4.2902   -1.8663    0.8915 H         1 <0>         0.0000
     32 H9         -4.0769   -1.6012    2.6234 H         1 <0>         0.0000
     33 H10        -2.7856   -2.3656    1.6725 H         1 <0>         0.0000
     34 H11        -0.1531    0.5335    1.9082 H         1 <0>         0.0000
     35 H12         0.7975    1.7493    1.0822 H         1 <0>         0.0000
     36 H13        -0.6573    1.5138   -0.9268 H         1 <0>         0.0000
     37 H14        -1.5832    1.9849    0.4933 H         1 <0>         0.0000
     38 H15         2.9484    0.3859    1.4229 H         1 <0>         0.0000
     39 H16         0.5915   -1.2082    0.2610 H         1 <0>         0.0000
     40 H17        -2.2476    0.0460    2.1366 H         1 <0>         0.0000
     41 H18         0.8845    0.1717   -1.5934 H         1 <0>         0.0000
     42 H19         2.2416   -0.6802   -1.2969 H         1 <0>         0.0000
     43 H20        -0.2179   -2.4154    4.1557 H         1 <0>         0.0000
     44 H21         0.9630   -2.6038    1.7309 H         1 <0>         0.0000
     45 H22         2.7041   -2.3378    0.6655 H         1 <0>         0.0000
@<TRIPOS>BOND
     1    1    2 ar
     2    1    3 ar
     3    2    5 ar
     4    3    6 ar
     5    4    5 ar
     6    4    6 ar
     7    5    7 1
     8    6   23 1
     9    7   17 am
    10    7   19 2
    11    8   13 1
    12    8   18 am
    13    8   20 2
    14    9   15 1
    15   10   15 1
    16   11   12 1
    17   11   14 1
    18   12   22 1
    19   13   14 1
    20   13   21 1
    21   14   16 1
    22   15   22 1
    23   17   18 1
    24    1   24 1
    25    2   25 1
    26    3   26 1
    27    4   27 1
    28    9   28 1
    29    9   29 1
    30    9   30 1
    31   10   31 1
    32   10   32 1
    33   10   33 1
    34   11   34 1
    35   11   35 1
    36   12   36 1
    37   12   37 1
    38   13   38 1
    39   14   39 1
    40   15   40 1
    41   16   41 1
    42   16   42 1
    43   17   43 1
    44   18   44 1
    45   21   45 1
@<TRIPOS>MOLECULE
LIGAND
   45    45     0     0     0
SMALL
NO_CHARGES

@<TRIPOS>ATOM
      1 C1          3.3047   -0.8664    9.7081 C.ar      1 <0>         0.0000
      2 C2          3.6057   -0.4258    8.4194 C.ar      1 <0>         0.0000
      3 C3          2.1622   -1.6344    9.9335 C.ar      1 <0>         0.0000
      4 C4          1.6219   -1.5209    7.5815 C.ar      1 <0>         0.0000
      5 C5          2.7643   -0.7530    7.3561 C.ar      1 <0>         0.0000
      6 C6          1.3208   -1.9616    8.8702 C.ar      1 <0>         0.0000
      7 C7          3.0854   -0.2826    5.9837 C.2       1 <0>         0.0000
      8 C8          1.9325   -1.0133    2.6768 C.2       1 <0>         0.0000
      9 C9          0.9992    5.4655    0.4702 C.3       1 <0>         0.0000
     10 C10         0.2949    5.8734    2.8530 C.3       1 <0>         0.0000
     11 C11         0.2195    0.8307    0.9188 C.3       1 <0>         0.0000
     12 C12         0.8590    2.2074    1.1305 C.3       1 <0>         0.0000
     13 C13         2.3649   -0.5352    1.2935 C.3       1 <0>         0.0000
     14 C14         1.1534   -0.2750    0.3710 C.3       1 <0>         0.0000
     15 C15         0.8241    4.8515    1.8540 C.3       1 <0>         0.0000
     16 N1          1.6681    0.0834   -0.9557 N.3       1 <0>         0.0000
     17 N2          2.6023   -1.0670    4.9540 N.am      1 <0>         0.0000
     18 N3          2.8469   -0.6810    3.6590 N.am      1 <0>         0.0000
     19 O1          3.7293    0.7533    5.8374 O.2       1 <0>         0.0000
     20 O2          0.8915   -1.6405    2.8632 O.2       1 <0>         0.0000
     21 O3          3.2186   -1.5159    0.7230 O.3       1 <0>         0.0000
     22 S1         -0.3102    3.4478    1.7590 S.3       1 <0>         0.0000
     23 Cl1        -0.0884   -2.9097    9.1490 Cl        1 <0>         0.0000
     24 H1          3.9601   -0.6118   10.5358 H         1 <0>         0.0000
     25 H2          4.4987    0.1721    8.2563 H         1 <0>         0.0000
     26 H3          1.9405   -1.9706   10.9431 H         1 <0>         0.0000
     27 H4          0.9676   -1.7751    6.7500 H         1 <0>         0.0000
     28 H5          0.0422    5.8509    0.1009 H         1 <0>         0.0000
     29 H6          1.7019    6.3059    0.4928 H         1 <0>         0.0000
     30 H7          1.3622    4.7326   -0.2594 H         1 <0>         0.0000
     31 H8         -0.6729    6.2651    2.5204 H         1 <0>         0.0000
     32 H9          0.9758    6.7263    2.9496 H         1 <0>         0.0000
     33 H10         0.1486    5.4355    3.8470 H         1 <0>         0.0000
     34 H11        -0.6259    0.9652    0.2307 H         1 <0>         0.0000
     35 H12        -0.2197    0.5004    1.8688 H         1 <0>         0.0000
     36 H13         1.2423    2.5738    0.1722 H         1 <0>         0.0000
     37 H14         1.7108    2.1489    1.8142 H         1 <0>         0.0000
     38 H15         2.9484    0.3859    1.4229 H         1 <0>         0.0000
     39 H16         0.5915   -1.2082    0.2610 H         1 <0>         0.0000
     40 H17         1.7903    4.4730    2.2043 H         1 <0>         0.0000
     41 H18         0.8845    0.1717   -1.5934 H         1 <0>         0.0000
     42 H19         2.2416   -0.6802   -1.2969 H         1 <0>         0.0000
     43 H20         2.0769   -1.9119    5.1509 H         1 <0>         0.0000
     44 H21         3.6858   -0.1599    3.4266 H         1 <0>         0.0000
     45 H22         2.7041   -2.3378    0.6655 H         1 <0>         0.0000
@<TRIPOS>BOND
     1    1    2 ar
     2    1    3 ar
     3    2    5 ar
     4    3    6 ar
     5    4    5 ar
     6    4    6 ar
     7    5    7 1
     8    6   23 1
     9    7   17 am
    10    7   19 2
    11    8   13 1
    12    8   18 am
    13    8   20 2
    14    9   15 1
    15   10   15 1
    16   11   12 1
    17   11   14 1
    18   12   22 1
    19   13   14 1
    20   13   21 1
    21   14   16 1
    22   15   22 1
    23   17   18 1
    24    1   24 1
    25    2   25 1
    26    3   26 1
    27    4   27 1
    28    9   28 1
    29    9   29 1
    30    9   30 1
    31   10   31 1
    32   10   32 1
    33   10   33 1
    34   11   34 1
    35   11   35 1
    36   12   36 1
    37   12   37 1
    38   13   38 1
    39   14   39 1
    40   15   40 1
    41   16   41 1
    42   16   42 1
    43   17   43 1
    44   18   44 1
    45   21   45 1
@<TRIPOS>MOLECULE
LIGAND
   45    45     0     0     0
SMALL
NO_CHARGES

@<TRIPOS>ATOM
      1 C1          0.3098   -0.7270    9.1684 C.ar      1 <0>         0.0000
      2 C2          0.5387   -0.2630    7.8731 C.ar      1 <0>         0.0000
      3 C3          1.1930   -1.6369    9.7496 C.ar      1 <0>         0.0000
      4 C4          2.5339   -1.6190    7.7400 C.ar      1 <0>         0.0000
      5 C5          1.6507   -0.7090    7.1588 C.ar      1 <0>         0.0000
      6 C6          2.3050   -2.0829    9.0354 C.ar      1 <0>         0.0000
      7 C7          1.8934   -0.2148    5.7787 C.2       1 <0>         0.0000
      8 C8          1.9325   -1.0133    2.6768 C.2       1 <0>         0.0000
      9 C9         -0.3459    6.1254    1.2341 C.3       1 <0>         0.0000
     10 C10         1.7475    5.1698    2.2562 C.3       1 <0>         0.0000
     11 C11         0.2195    0.8307    0.9188 C.3       1 <0>         0.0000
     12 C12         0.8590    2.2074    1.1305 C.3       1 <0>         0.0000
     13 C13         2.3649   -0.5352    1.2935 C.3       1 <0>         0.0000
     14 C14         1.1534   -0.2750    0.3710 C.3       1 <0>         0.0000
     15 C15         0.6016    4.9327    1.2798 C.3       1 <0>         0.0000
     16 N1          1.6681    0.0834   -0.9557 N.3       1 <0>         0.0000
     17 N2          2.6023   -1.0670    4.9540 N.am      1 <0>         0.0000
     18 N3          2.8469   -0.6810    3.6590 N.am      1 <0>         0.0000
     19 O1          1.4534    0.8829    5.4461 O.2       1 <0>         0.0000
     20 O2          0.8915   -1.6405    2.8632 O.2       1 <0>         0.0000
     21 O3          3.2186   -1.5159    0.7230 O.3       1 <0>         0.0000
     22 S1         -0.3102    3.4478    1.7590 S.3       1 <0>         0.0000
     23 Cl1         3.3947   -3.2053    9.7533 Cl        1 <0>         0.0000
     24 H1         -0.5558   -0.3793    9.7245 H         1 <0>         0.0000
     25 H2         -0.1567    0.4458    7.4309 H         1 <0>         0.0000
     26 H3          1.0018   -1.9896   10.7598 H         1 <0>         0.0000
     27 H4          3.4009   -1.9648    7.1806 H         1 <0>         0.0000
     28 H5         -0.7677    6.3147    2.2275 H         1 <0>         0.0000
     29 H6          0.1756    7.0373    0.9225 H         1 <0>         0.0000
     30 H7         -1.1835    5.9561    0.5478 H         1 <0>         0.0000
     31 H8          1.3579    5.3444    3.2653 H         1 <0>         0.0000
     32 H9          2.3340    6.0519    1.9762 H         1 <0>         0.0000
     33 H10         2.4242    4.3092    2.3091 H         1 <0>         0.0000
     34 H11        -0.6259    0.9652    0.2307 H         1 <0>         0.0000
     35 H12        -0.2197    0.5004    1.8688 H         1 <0>         0.0000
     36 H13         1.2423    2.5738    0.1722 H         1 <0>         0.0000
     37 H14         1.7108    2.1489    1.8142 H         1 <0>         0.0000
     38 H15         2.9484    0.3859    1.4229 H         1 <0>         0.0000
     39 H16         0.5915   -1.2082    0.2610 H         1 <0>         0.0000
     40 H17         1.0117    4.7605    0.2790 H         1 <0>         0.0000
     41 H18         0.8845    0.1717   -1.5934 H         1 <0>         0.0000
     42 H19         2.2416   -0.6802   -1.2969 H         1 <0>         0.0000
     43 H20         2.9356   -1.9607    5.2985 H         1 <0>         0.0000
     44 H21         3.6858   -0.1599    3.4266 H         1 <0>         0.0000
     45 H22         2.7041   -2.3378    0.6655 H         1 <0>         0.0000
@<TRIPOS>BOND
     1    1    2 ar
     2    1    3 ar
     3    2    5 ar
     4    3    6 ar
     5    4    5 ar
     6    4    6 ar
     7    5    7 1
     8    6   23 1
     9    7   17 am
    10    7   19 2
    11    8   13 1
    12    8   18 am
    13    8   20 2
    14    9   15 1
    15   10   15 1
    16   11   12 1
    17   11   14 1
    18   12   22 1
    19   13   14 1
    20   13   21 1
    21   14   16 1
    22   15   22 1
    23   17   18 1
    24    1   24 1
    25    2   25 1
    26    3   26 1
    27    4   27 1
    28    9   28 1
    29    9   29 1
    30    9   30 1
    31   10   31 1
    32   10   32 1
    33   10   33 1
    34   11   34 1
    35   11   35 1
    36   12   36 1
    37   12   37 1
    38   13   38 1
    39   14   39 1
    40   15   40 1
    41   16   41 1
    42   16   42 1
    43   17   43 1
    44   18   44 1
    45   21   45 1
@<TRIPOS>MOLECULE
LIGAND
   45    45     0     0     0
SMALL
NO_CHARGES

@<TRIPOS>ATOM
      1 C1          3.3674   -3.8174    8.8247 C.ar      1 <0>         0.0000
      2 C2          3.6347   -3.4983    7.4934 C.ar      1 <0>         0.0000
      3 C3          2.2539   -3.2710    9.4629 C.ar      1 <0>         0.0000
      4 C4          1.6751   -2.0863    7.4384 C.ar      1 <0>         0.0000
      5 C5          2.7886   -2.6327    6.8003 C.ar      1 <0>         0.0000
      6 C6          1.4078   -2.4054    8.7697 C.ar      1 <0>         0.0000
      7 C7          3.0744   -2.2928    5.3823 C.2       1 <0>         0.0000
      8 C8          1.9325   -1.0133    2.6768 C.2       1 <0>         0.0000
      9 C9         -1.3566    4.2423   -1.1718 C.3       1 <0>         0.0000
     10 C10        -1.3823    5.0762    1.2040 C.3       1 <0>         0.0000
     11 C11         0.2195    0.8307    0.9188 C.3       1 <0>         0.0000
     12 C12        -1.0001    1.1700    0.0549 C.3       1 <0>         0.0000
     13 C13         2.3649   -0.5352    1.2935 C.3       1 <0>         0.0000
     14 C14         1.1534   -0.2750    0.3710 C.3       1 <0>         0.0000
     15 C15        -1.0699    3.9009    0.2855 C.3       1 <0>         0.0000
     16 N1          1.6681    0.0834   -0.9557 N.3       1 <0>         0.0000
     17 N2          2.6023   -1.0670    4.9540 N.am      1 <0>         0.0000
     18 N3          2.8469   -0.6810    3.6590 N.am      1 <0>         0.0000
     19 O1          3.7083   -3.0847    4.6892 O.2       1 <0>         0.0000
     20 O2          0.8915   -1.6405    2.8632 O.2       1 <0>         0.0000
     21 O3          3.2186   -1.5159    0.7230 O.3       1 <0>         0.0000
     22 S1         -2.0492    2.4644    0.7791 S.3       1 <0>         0.0000
     23 Cl1         0.0337   -1.7319    9.5577 Cl        1 <0>         0.0000
     24 H1          4.0262   -4.4916    9.3641 H         1 <0>         0.0000
     25 H2          4.5055   -3.9303    7.0070 H         1 <0>         0.0000
     26 H3          2.0583   -3.5288   10.5005 H         1 <0>         0.0000
     27 H4          1.0164   -1.4117    6.8951 H         1 <0>         0.0000
     28 H5         -2.4105    4.5137   -1.2989 H         1 <0>         0.0000
     29 H6         -0.7576    5.0967   -1.5064 H         1 <0>         0.0000
     30 H7         -1.1520    3.3963   -1.8378 H         1 <0>         0.0000
     31 H8         -2.4367    5.3604    1.1134 H         1 <0>         0.0000
     32 H9         -0.7841    5.9563    0.9431 H         1 <0>         0.0000
     33 H10        -1.1964    4.8333    2.2564 H         1 <0>         0.0000
     34 H11        -0.1531    0.5335    1.9082 H         1 <0>         0.0000
     35 H12         0.7975    1.7493    1.0822 H         1 <0>         0.0000
     36 H13        -1.6176    0.2727   -0.0585 H         1 <0>         0.0000
     37 H14        -0.7009    1.4813   -0.9501 H         1 <0>         0.0000
     38 H15         2.9484    0.3859    1.4229 H         1 <0>         0.0000
     39 H16         0.5915   -1.2082    0.2610 H         1 <0>         0.0000
     40 H17        -0.0132    3.6330    0.3910 H         1 <0>         0.0000
     41 H18         0.8845    0.1717   -1.5934 H         1 <0>         0.0000
     42 H19         2.2416   -0.6802   -1.2969 H         1 <0>         0.0000
     43 H20         2.0849   -0.4638    5.5841 H         1 <0>         0.0000
     44 H21         3.6858   -0.1599    3.4266 H         1 <0>         0.0000
     45 H22         2.7041   -2.3378    0.6655 H         1 <0>         0.0000
@<TRIPOS>BOND
     1    1    2 ar
     2    1    3 ar
     3    2    5 ar
     4    3    6 ar
     5    4    5 ar
     6    4    6 ar
     7    5    7 1
     8    6   23 1
     9    7   17 am
    10    7   19 2
    11    8   13 1
    12    8   18 am
    13    8   20 2
    14    9   15 1
    15   10   15 1
    16   11   12 1
    17   11   14 1
    18   12   22 1
    19   13   14 1
    20   13   21 1
    21   14   16 1
    22   15   22 1
    23   17   18 1
    24    1   24 1
    25    2   25 1
    26    3   26 1
    27    4   27 1
    28    9   28 1
    29    9   29 1
    30    9   30 1
    31   10   31 1
    32   10   32 1
    33   10   33 1
    34   11   34 1
    35   11   35 1
    36   12   36 1
    37   12   37 1
    38   13   38 1
    39   14   39 1
    40   15   40 1
    41   16   41 1
    42   16   42 1
    43   17   43 1
    44   18   44 1
    45   21   45 1
@<TRIPOS>MOLECULE
LIGAND
   45    45     0     0     0
SMALL
NO_CHARGES

@<TRIPOS>ATOM
      1 C1          2.4230   -4.2883    8.5214 C.ar      1 <0>         0.0000
      2 C2          2.6907   -3.9683    7.1905 C.ar      1 <0>         0.0000
      3 C3          2.2530   -3.2726    9.4623 C.ar      1 <0>         0.0000
      4 C4          2.6187   -1.6170    7.7412 C.ar      1 <0>         0.0000
      5 C5          2.7886   -2.6327    6.8003 C.ar      1 <0>         0.0000
      6 C6          2.3509   -1.9370    9.0722 C.ar      1 <0>         0.0000
      7 C7          3.0744   -2.2928    5.3823 C.2       1 <0>         0.0000
      8 C8          1.9325   -1.0133    2.6768 C.2       1 <0>         0.0000
      9 C9          0.9992    5.4655    0.4702 C.3       1 <0>         0.0000
     10 C10         0.2949    5.8734    2.8530 C.3       1 <0>         0.0000
     11 C11         0.2195    0.8307    0.9188 C.3       1 <0>         0.0000
     12 C12         0.8590    2.2074    1.1305 C.3       1 <0>         0.0000
     13 C13         2.3649   -0.5352    1.2935 C.3       1 <0>         0.0000
     14 C14         1.1534   -0.2750    0.3710 C.3       1 <0>         0.0000
     15 C15         0.8241    4.8515    1.8540 C.3       1 <0>         0.0000
     16 N1          1.6681    0.0834   -0.9557 N.3       1 <0>         0.0000
     17 N2          2.6023   -1.0670    4.9540 N.am      1 <0>         0.0000
     18 N3          2.8469   -0.6810    3.6590 N.am      1 <0>         0.0000
     19 O1          3.7083   -3.0847    4.6892 O.2       1 <0>         0.0000
     20 O2          0.8915   -1.6405    2.8632 O.2       1 <0>         0.0000
     21 O3          3.2186   -1.5159    0.7230 O.3       1 <0>         0.0000
     22 S1         -0.3102    3.4478    1.7590 S.3       1 <0>         0.0000
     23 Cl1         2.1407   -0.6842   10.2336 Cl        1 <0>         0.0000
     24 H1          2.3465   -5.3282    8.8249 H         1 <0>         0.0000
     25 H2          2.8213   -4.7686    6.4665 H         1 <0>         0.0000
     26 H3          2.0449   -3.5371   10.4958 H         1 <0>         0.0000
     27 H4          2.6951   -0.5760    7.4338 H         1 <0>         0.0000
     28 H5          0.0422    5.8509    0.1009 H         1 <0>         0.0000
     29 H6          1.7019    6.3059    0.4928 H         1 <0>         0.0000
     30 H7          1.3622    4.7326   -0.2594 H         1 <0>         0.0000
     31 H8         -0.6729    6.2651    2.5204 H         1 <0>         0.0000
     32 H9          0.9758    6.7263    2.9496 H         1 <0>         0.0000
     33 H10         0.1486    5.4355    3.8470 H         1 <0>         0.0000
     34 H11        -0.6259    0.9652    0.2307 H         1 <0>         0.0000
     35 H12        -0.2197    0.5004    1.8688 H         1 <0>         0.0000
     36 H13         1.2423    2.5738    0.1722 H         1 <0>         0.0000
     37 H14         1.7108    2.1489    1.8142 H         1 <0>         0.0000
     38 H15         2.9484    0.3859    1.4229 H         1 <0>         0.0000
     39 H16         0.5915   -1.2082    0.2610 H         1 <0>         0.0000
     40 H17         1.7903    4.4730    2.2043 H         1 <0>         0.0000
     41 H18         0.8845    0.1717   -1.5934 H         1 <0>         0.0000
     42 H19         2.2416   -0.6802   -1.2969 H         1 <0>         0.0000
     43 H20         2.0849   -0.4638    5.5841 H         1 <0>         0.0000
     44 H21         3.6858   -0.1599    3.4266 H         1 <0>         0.0000
     45 H22         2.7041   -2.3378    0.6655 H         1 <0>         0.0000
@<TRIPOS>BOND
     1    1    2 ar
     2    1    3 ar
     3    2    5 ar
     4    3    6 ar
     5    4    5 ar
     6    4    6 ar
     7    5    7 1
     8    6   23 1
     9    7   17 am
    10    7   19 2
    11    8   13 1
    12    8   18 am
    13    8   20 2
    14    9   15 1
    15   10   15 1
    16   11   12 1
    17   11   14 1
    18   12   22 1
    19   13   14 1
    20   13   21 1
    21   14   16 1
    22   15   22 1
    23   17   18 1
    24    1   24 1
    25    2   25 1
    26    3   26 1
    27    4   27 1
    28    9   28 1
    29    9   29 1
    30    9   30 1
    31   10   31 1
    32   10   32 1
    33   10   33 1
    34   11   34 1
    35   11   35 1
    36   12   36 1
    37   12   37 1
    38   13   38 1
    39   14   39 1
    40   15   40 1
    41   16   41 1
    42   16   42 1
    43   17   43 1
    44   18   44 1
    45   21   45 1
@<TRIPOS>MOLECULE
LIGAND
   45    45     0     0     0
SMALL
NO_CHARGES

@<TRIPOS>ATOM
      1 C1          2.2466   -2.5526    8.8826 C.ar      1 <0>         0.0000
      2 C2          2.5475   -2.1101    7.5945 C.ar      1 <0>         0.0000
      3 C3          2.1624   -1.6379    9.9324 C.ar      1 <0>         0.0000
      4 C4          2.6802    0.1617    8.4058 C.ar      1 <0>         0.0000
      5 C5          2.7643   -0.7530    7.3561 C.ar      1 <0>         0.0000
      6 C6          2.3792   -0.2808    9.6940 C.ar      1 <0>         0.0000
      7 C7          3.0854   -0.2826    5.9837 C.2       1 <0>         0.0000
      8 C8          1.9325   -1.0133    2.6768 C.2       1 <0>         0.0000
      9 C9         -3.5953   -0.8020   -2.4330 C.3       1 <0>         0.0000
     10 C10        -4.0047    1.3935   -1.2699 C.3       1 <0>         0.0000
     11 C11         0.2195    0.8307    0.9188 C.3       1 <0>         0.0000
     12 C12        -1.0001    1.1700    0.0549 C.3       1 <0>         0.0000
     13 C13         2.3649   -0.5352    1.2935 C.3       1 <0>         0.0000
     14 C14         1.1534   -0.2750    0.3710 C.3       1 <0>         0.0000
     15 C15        -2.9606    0.3632   -1.6834 C.3       1 <0>         0.0000
     16 N1          1.6681    0.0834   -0.9557 N.3       1 <0>         0.0000
     17 N2          2.6023   -1.0670    4.9540 N.am      1 <0>         0.0000
     18 N3          2.8469   -0.6810    3.6590 N.am      1 <0>         0.0000
     19 O1          3.7293    0.7533    5.8374 O.2       1 <0>         0.0000
     20 O2          0.8915   -1.6405    2.8632 O.2       1 <0>         0.0000
     21 O3          3.2186   -1.5159    0.7230 O.3       1 <0>         0.0000
     22 S1         -2.0977   -0.2515   -0.2193 S.3       1 <0>         0.0000
     23 Cl1         2.2747    0.8474   10.9897 Cl        1 <0>         0.0000
     24 H1          2.0776   -3.6092    9.0680 H         1 <0>         0.0000
     25 H2          2.6105   -2.8325    6.7847 H         1 <0>         0.0000
     26 H3          1.9271   -1.9973   10.9308 H         1 <0>         0.0000
     27 H4          2.8492    1.2199    8.2168 H         1 <0>         0.0000
     28 H5         -4.3436   -1.2969   -1.8040 H         1 <0>         0.0000
     29 H6         -4.1065   -0.4613   -3.3404 H         1 <0>         0.0000
     30 H7         -2.8540   -1.5571   -2.7183 H         1 <0>         0.0000
     31 H8         -4.7593    0.9323   -0.6229 H         1 <0>         0.0000
     32 H9         -4.5284    1.8023   -2.1412 H         1 <0>         0.0000
     33 H10        -3.5593    2.2264   -0.7139 H         1 <0>         0.0000
     34 H11        -0.1531    0.5335    1.9082 H         1 <0>         0.0000
     35 H12         0.7975    1.7493    1.0822 H         1 <0>         0.0000
     36 H13        -0.6573    1.5138   -0.9268 H         1 <0>         0.0000
     37 H14        -1.5832    1.9849    0.4933 H         1 <0>         0.0000
     38 H15         2.9484    0.3859    1.4229 H         1 <0>         0.0000
     39 H16         0.5915   -1.2082    0.2610 H         1 <0>         0.0000
     40 H17        -2.2171    0.8435   -2.3283 H         1 <0>         0.0000
     41 H18         0.8845    0.1717   -1.5934 H         1 <0>         0.0000
     42 H19         2.2416   -0.6802   -1.2969 H         1 <0>         0.0000
     43 H20         2.0769   -1.9119    5.1509 H         1 <0>         0.0000
     44 H21         3.6858   -0.1599    3.4266 H         1 <0>         0.0000
     45 H22         2.7041   -2.3378    0.6655 H         1 <0>         0.0000
@<TRIPOS>BOND
     1    1    2 ar
     2    1    3 ar
     3    2    5 ar
     4    3    6 ar
     5    4    5 ar
     6    4    6 ar
     7    5    7 1
     8    6   23 1
     9    7   17 am
    10    7   19 2
    11    8   13 1
    12    8   18 am
    13    8   20 2
    14    9   15 1
    15   10   15 1
    16   11   12 1
    17   11   14 1
    18   12   22 1
    19   13   14 1
    20   13   21 1
    21   14   16 1
    22   15   22 1
    23   17   18 1
    24    1   24 1
    25    2   25 1
    26    3   26 1
    27    4   27 1
    28    9   28 1
    29    9   29 1
    30    9   30 1
    31   10   31 1
    32   10   32 1
    33   10   33 1
    34   11   34 1
    35   11   35 1
    36   12   36 1
    37   12   37 1
    38   13   38 1
    39   14   39 1
    40   15   40 1
    41   16   41 1
    42   16   42 1
    43   17   43 1
    44   18   44 1
    45   21   45 1
@<TRIPOS>MOLECULE
LIGAND
   45    45     0     0     0
SMALL
NO_CHARGES

@<TRIPOS>ATOM
      1 C1          3.3674   -3.8174    8.8247 C.ar      1 <0>         0.0000
      2 C2          3.6347   -3.4983    7.4934 C.ar      1 <0>         0.0000
      3 C3          2.2539   -3.2710    9.4629 C.ar      1 <0>         0.0000
      4 C4          1.6751   -2.0863    7.4384 C.ar      1 <0>         0.0000
      5 C5          2.7886   -2.6327    6.8003 C.ar      1 <0>         0.0000
      6 C6          1.4078   -2.4054    8.7697 C.ar      1 <0>         0.0000
      7 C7          3.0744   -2.2928    5.3823 C.2       1 <0>         0.0000
      8 C8          1.9325   -1.0133    2.6768 C.2       1 <0>         0.0000
      9 C9          0.0309    6.1524    1.8816 C.3       1 <0>         0.0000
     10 C10         1.7102    4.7140    3.0862 C.3       1 <0>         0.0000
     11 C11         0.2195    0.8307    0.9188 C.3       1 <0>         0.0000
     12 C12         0.8590    2.2074    1.1305 C.3       1 <0>         0.0000
     13 C13         2.3649   -0.5352    1.2935 C.3       1 <0>         0.0000
     14 C14         1.1534   -0.2750    0.3710 C.3       1 <0>         0.0000
     15 C15         0.8241    4.8515    1.8540 C.3       1 <0>         0.0000
     16 N1          1.6681    0.0834   -0.9557 N.3       1 <0>         0.0000
     17 N2          2.6023   -1.0670    4.9540 N.am      1 <0>         0.0000
     18 N3          2.8469   -0.6810    3.6590 N.am      1 <0>         0.0000
     19 O1          3.7083   -3.0847    4.6892 O.2       1 <0>         0.0000
     20 O2          0.8915   -1.6405    2.8632 O.2       1 <0>         0.0000
     21 O3          3.2186   -1.5159    0.7230 O.3       1 <0>         0.0000
     22 S1         -0.3102    3.4478    1.7590 S.3       1 <0>         0.0000
     23 Cl1         0.0337   -1.7319    9.5577 Cl        1 <0>         0.0000
     24 H1          4.0262   -4.4916    9.3641 H         1 <0>         0.0000
     25 H2          4.5055   -3.9303    7.0070 H         1 <0>         0.0000
     26 H3          2.0583   -3.5288   10.5005 H         1 <0>         0.0000
     27 H4          1.0164   -1.4117    6.8951 H         1 <0>         0.0000
     28 H5         -0.6040    6.1923    2.7738 H         1 <0>         0.0000
     29 H6          0.6947    7.0236    1.9150 H         1 <0>         0.0000
     30 H7         -0.6232    6.2512    1.0077 H         1 <0>         0.0000
     31 H8          1.1011    4.7317    3.9969 H         1 <0>         0.0000
     32 H9          2.4261    5.5404    3.1569 H         1 <0>         0.0000
     33 H10         2.2708    3.7722    3.0836 H         1 <0>         0.0000
     34 H11        -0.6259    0.9652    0.2307 H         1 <0>         0.0000
     35 H12        -0.2197    0.5004    1.8688 H         1 <0>         0.0000
     36 H13         1.2423    2.5738    0.1722 H         1 <0>         0.0000
     37 H14         1.7108    2.1489    1.8142 H         1 <0>         0.0000
     38 H15         2.9484    0.3859    1.4229 H         1 <0>         0.0000
     39 H16         0.5915   -1.2082    0.2610 H         1 <0>         0.0000
     40 H17         1.4510    4.8315    0.9561 H         1 <0>         0.0000
     41 H18         0.8845    0.1717   -1.5934 H         1 <0>         0.0000
     42 H19         2.2416   -0.6802   -1.2969 H         1 <0>         0.0000
     43 H20         2.0849   -0.4638    5.5841 H         1 <0>         0.0000
     44 H21         3.6858   -0.1599    3.4266 H         1 <0>         0.0000
     45 H22         2.7041   -2.3378    0.6655 H         1 <0>         0.0000
@<TRIPOS>BOND
     1    1    2 ar
     2    1    3 ar
     3    2    5 ar
     4    3    6 ar
     5    4    5 ar
     6    4    6 ar
     7    5    7 1
     8    6   23 1
     9    7   17 am
    10    7   19 2
    11    8   13 1
    12    8   18 am
    13    8   20 2
    14    9   15 1
    15   10   15 1
    16   11   12 1
    17   11   14 1
    18   12   22 1
    19   13   14 1
    20   13   21 1
    21   14   16 1
    22   15   22 1
    23   17   18 1
    24    1   24 1
    25    2   25 1
    26    3   26 1
    27    4   27 1
    28    9   28 1
    29    9   29 1
    30    9   30 1
    31   10   31 1
    32   10   32 1
    33   10   33 1
    34   11   34 1
    35   11   35 1
    36   12   36 1
    37   12   37 1
    38   13   38 1
    39   14   39 1
    40   15   40 1
    41   16   41 1
    42   16   42 1
    43   17   43 1
    44   18   44 1
    45   21   45 1
@<TRIPOS>MOLECULE
LIGAND
   45    45     0     0     0
SMALL
NO_CHARGES

@<TRIPOS>ATOM
      1 C1          2.4230   -4.2883    8.5214 C.ar      1 <0>         0.0000
      2 C2          2.6907   -3.9683    7.1905 C.ar      1 <0>         0.0000
      3 C3          2.2530   -3.2726    9.4623 C.ar      1 <0>         0.0000
      4 C4          2.6187   -1.6170    7.7412 C.ar      1 <0>         0.0000
      5 C5          2.7886   -2.6327    6.8003 C.ar      1 <0>         0.0000
      6 C6          2.3509   -1.9370    9.0722 C.ar      1 <0>         0.0000
      7 C7          3.0744   -2.2928    5.3823 C.2       1 <0>         0.0000
      8 C8          1.9325   -1.0133    2.6768 C.2       1 <0>         0.0000
      9 C9         -1.3566    4.2423   -1.1718 C.3       1 <0>         0.0000
     10 C10        -1.3823    5.0762    1.2040 C.3       1 <0>         0.0000
     11 C11         0.2195    0.8307    0.9188 C.3       1 <0>         0.0000
     12 C12        -1.0001    1.1700    0.0549 C.3       1 <0>         0.0000
     13 C13         2.3649   -0.5352    1.2935 C.3       1 <0>         0.0000
     14 C14         1.1534   -0.2750    0.3710 C.3       1 <0>         0.0000
     15 C15        -1.0699    3.9009    0.2855 C.3       1 <0>         0.0000
     16 N1          1.6681    0.0834   -0.9557 N.3       1 <0>         0.0000
     17 N2          2.6023   -1.0670    4.9540 N.am      1 <0>         0.0000
     18 N3          2.8469   -0.6810    3.6590 N.am      1 <0>         0.0000
     19 O1          3.7083   -3.0847    4.6892 O.2       1 <0>         0.0000
     20 O2          0.8915   -1.6405    2.8632 O.2       1 <0>         0.0000
     21 O3          3.2186   -1.5159    0.7230 O.3       1 <0>         0.0000
     22 S1         -2.0492    2.4644    0.7791 S.3       1 <0>         0.0000
     23 Cl1         2.1407   -0.6842   10.2336 Cl        1 <0>         0.0000
     24 H1          2.3465   -5.3282    8.8249 H         1 <0>         0.0000
     25 H2          2.8213   -4.7686    6.4665 H         1 <0>         0.0000
     26 H3          2.0449   -3.5371   10.4958 H         1 <0>         0.0000
     27 H4          2.6951   -0.5760    7.4338 H         1 <0>         0.0000
     28 H5         -2.4105    4.5137   -1.2989 H         1 <0>         0.0000
     29 H6         -0.7576    5.0967   -1.5064 H         1 <0>         0.0000
     30 H7         -1.1520    3.3963   -1.8378 H         1 <0>         0.0000
     31 H8         -2.4367    5.3604    1.1134 H         1 <0>         0.0000
     32 H9         -0.7841    5.9563    0.9431 H         1 <0>         0.0000
     33 H10        -1.1964    4.8333    2.2564 H         1 <0>         0.0000
     34 H11        -0.1531    0.5335    1.9082 H         1 <0>         0.0000
     35 H12         0.7975    1.7493    1.0822 H         1 <0>         0.0000
     36 H13        -1.6176    0.2727   -0.0585 H         1 <0>         0.0000
     37 H14        -0.7009    1.4813   -0.9501 H         1 <0>         0.0000
     38 H15         2.9484    0.3859    1.4229 H         1 <0>         0.0000
     39 H16         0.5915   -1.2082    0.2610 H         1 <0>         0.0000
     40 H17        -0.0132    3.6330    0.3910 H         1 <0>         0.0000
     41 H18         0.8845    0.1717   -1.5934 H         1 <0>         0.0000
     42 H19         2.2416   -0.6802   -1.2969 H         1 <0>         0.0000
     43 H20         2.0849   -0.4638    5.5841 H         1 <0>         0.0000
     44 H21         3.6858   -0.1599    3.4266 H         1 <0>         0.0000
     45 H22         2.7041   -2.3378    0.6655 H         1 <0>         0.0000
@<TRIPOS>BOND
     1    1    2 ar
     2    1    3 ar
     3    2    5 ar
     4    3    6 ar
     5    4    5 ar
     6    4    6 ar
     7    5    7 1
     8    6   23 1
     9    7   17 am
    10    7   19 2
    11    8   13 1
    12    8   18 am
    13    8   20 2
    14    9   15 1
    15   10   15 1
    16   11   12 1
    17   11   14 1
    18   12   22 1
    19   13   14 1
    20   13   21 1
    21   14   16 1
    22   15   22 1
    23   17   18 1
    24    1   24 1
    25    2   25 1
    26    3   26 1
    27    4   27 1
    28    9   28 1
    29    9   29 1
    30    9   30 1
    31   10   31 1
    32   10   32 1
    33   10   33 1
    34   11   34 1
    35   11   35 1
    36   12   36 1
    37   12   37 1
    38   13   38 1
    39   14   39 1
    40   15   40 1
    41   16   41 1
    42   16   42 1
    43   17   43 1
    44   18   44 1
    45   21   45 1
@<TRIPOS>MOLECULE
LIGAND
   45    45     0     0     0
SMALL
NO_CHARGES

@<TRIPOS>ATOM
      1 C1          1.3691   -2.5452    8.7036 C.ar      1 <0>         0.0000
      2 C2          1.5963   -2.0804    7.4082 C.ar      1 <0>         0.0000
      3 C3          1.1963   -1.6386    9.7496 C.ar      1 <0>         0.0000
      4 C4          1.4779    0.1975    8.2048 C.ar      1 <0>         0.0000
      5 C5          1.6507   -0.7090    7.1588 C.ar      1 <0>         0.0000
      6 C6          1.2507   -0.2673    9.5002 C.ar      1 <0>         0.0000
      7 C7          1.8934   -0.2148    5.7787 C.2       1 <0>         0.0000
      8 C8          1.9325   -1.0133    2.6768 C.2       1 <0>         0.0000
      9 C9         -4.5752    3.1779    0.0331 C.3       1 <0>         0.0000
     10 C10        -2.7668    3.3107   -1.7140 C.3       1 <0>         0.0000
     11 C11         0.2195    0.8307    0.9188 C.3       1 <0>         0.0000
     12 C12        -1.0001    1.1700    0.0549 C.3       1 <0>         0.0000
     13 C13         2.3649   -0.5352    1.2935 C.3       1 <0>         0.0000
     14 C14         1.1534   -0.2750    0.3710 C.3       1 <0>         0.0000
     15 C15        -3.3066    2.5373   -0.5169 C.3       1 <0>         0.0000
     16 N1          1.6681    0.0834   -0.9557 N.3       1 <0>         0.0000
     17 N2          2.6023   -1.0670    4.9540 N.am      1 <0>         0.0000
     18 N3          2.8469   -0.6810    3.6590 N.am      1 <0>         0.0000
     19 O1          1.4534    0.8829    5.4461 O.2       1 <0>         0.0000
     20 O2          0.8915   -1.6405    2.8632 O.2       1 <0>         0.0000
     21 O3          3.2186   -1.5159    0.7230 O.3       1 <0>         0.0000
     22 S1         -2.0492    2.4644    0.7791 S.3       1 <0>         0.0000
     23 Cl1         1.0368    0.8507   10.7913 Cl        1 <0>         0.0000
     24 H1          1.3265   -3.6129    8.8975 H         1 <0>         0.0000
     25 H2          1.7296   -2.7965    6.6014 H         1 <0>         0.0000
     26 H3          1.0200   -2.0156   10.7537 H         1 <0>         0.0000
     27 H4          1.5203    1.2667    8.0072 H         1 <0>         0.0000
     28 H5         -4.3764    4.2092    0.3452 H         1 <0>         0.0000
     29 H6         -5.3650    3.2137   -0.7256 H         1 <0>         0.0000
     30 H7         -4.9604    2.6385    0.9059 H         1 <0>         0.0000
     31 H8         -2.5401    4.3441   -1.4288 H         1 <0>         0.0000
     32 H9         -3.5004    3.3505   -2.5268 H         1 <0>         0.0000
     33 H10        -1.8438    2.8672   -2.1048 H         1 <0>         0.0000
     34 H11        -0.1531    0.5335    1.9082 H         1 <0>         0.0000
     35 H12         0.7975    1.7493    1.0822 H         1 <0>         0.0000
     36 H13        -1.6176    0.2727   -0.0585 H         1 <0>         0.0000
     37 H14        -0.7009    1.4813   -0.9501 H         1 <0>         0.0000
     38 H15         2.9484    0.3859    1.4229 H         1 <0>         0.0000
     39 H16         0.5915   -1.2082    0.2610 H         1 <0>         0.0000
     40 H17        -3.5264    1.5088   -0.8227 H         1 <0>         0.0000
     41 H18         0.8845    0.1717   -1.5934 H         1 <0>         0.0000
     42 H19         2.2416   -0.6802   -1.2969 H         1 <0>         0.0000
     43 H20         2.9356   -1.9607    5.2985 H         1 <0>         0.0000
     44 H21         3.6858   -0.1599    3.4266 H         1 <0>         0.0000
     45 H22         2.7041   -2.3378    0.6655 H         1 <0>         0.0000
@<TRIPOS>BOND
     1    1    2 ar
     2    1    3 ar
     3    2    5 ar
     4    3    6 ar
     5    4    5 ar
     6    4    6 ar
     7    5    7 1
     8    6   23 1
     9    7   17 am
    10    7   19 2
    11    8   13 1
    12    8   18 am
    13    8   20 2
    14    9   15 1
    15   10   15 1
    16   11   12 1
    17   11   14 1
    18   12   22 1
    19   13   14 1
    20   13   21 1
    21   14   16 1
    22   15   22 1
    23   17   18 1
    24    1   24 1
    25    2   25 1
    26    3   26 1
    27    4   27 1
    28    9   28 1
    29    9   29 1
    30    9   30 1
    31   10   31 1
    32   10   32 1
    33   10   33 1
    34   11   34 1
    35   11   35 1
    36   12   36 1
    37   12   37 1
    38   13   38 1
    39   14   39 1
    40   15   40 1
    41   16   41 1
    42   16   42 1
    43   17   43 1
    44   18   44 1
    45   21   45 1
@<TRIPOS>MOLECULE
LIGAND
   45    45     0     0     0
SMALL
NO_CHARGES

@<TRIPOS>ATOM
      1 C1          0.3098   -0.7270    9.1684 C.ar      1 <0>         0.0000
      2 C2          0.5387   -0.2630    7.8731 C.ar      1 <0>         0.0000
      3 C3          1.1930   -1.6369    9.7496 C.ar      1 <0>         0.0000
      4 C4          2.5339   -1.6190    7.7400 C.ar      1 <0>         0.0000
      5 C5          1.6507   -0.7090    7.1588 C.ar      1 <0>         0.0000
      6 C6          2.3050   -2.0829    9.0354 C.ar      1 <0>         0.0000
      7 C7          1.8934   -0.2148    5.7787 C.2       1 <0>         0.0000
      8 C8          1.9325   -1.0133    2.6768 C.2       1 <0>         0.0000
      9 C9         -4.2967    1.3927   -0.3375 C.3       1 <0>         0.0000
     10 C10        -4.0071    3.8901   -0.4781 C.3       1 <0>         0.0000
     11 C11         0.2195    0.8307    0.9188 C.3       1 <0>         0.0000
     12 C12        -1.0001    1.1700    0.0549 C.3       1 <0>         0.0000
     13 C13         2.3649   -0.5352    1.2935 C.3       1 <0>         0.0000
     14 C14         1.1534   -0.2750    0.3710 C.3       1 <0>         0.0000
     15 C15        -3.3066    2.5373   -0.5169 C.3       1 <0>         0.0000
     16 N1          1.6681    0.0834   -0.9557 N.3       1 <0>         0.0000
     17 N2          2.6023   -1.0670    4.9540 N.am      1 <0>         0.0000
     18 N3          2.8469   -0.6810    3.6590 N.am      1 <0>         0.0000
     19 O1          1.4534    0.8829    5.4461 O.2       1 <0>         0.0000
     20 O2          0.8915   -1.6405    2.8632 O.2       1 <0>         0.0000
     21 O3          3.2186   -1.5159    0.7230 O.3       1 <0>         0.0000
     22 S1         -2.0492    2.4644    0.7791 S.3       1 <0>         0.0000
     23 Cl1         3.3947   -3.2053    9.7533 Cl        1 <0>         0.0000
     24 H1         -0.5558   -0.3793    9.7245 H         1 <0>         0.0000
     25 H2         -0.1567    0.4458    7.4309 H         1 <0>         0.0000
     26 H3          1.0018   -1.9896   10.7598 H         1 <0>         0.0000
     27 H4          3.4009   -1.9648    7.1806 H         1 <0>         0.0000
     28 H5         -4.8186    1.4878    0.6213 H         1 <0>         0.0000
     29 H6         -5.0586    1.3975   -1.1249 H         1 <0>         0.0000
     30 H7         -3.7990    0.4164   -0.3457 H         1 <0>         0.0000
     31 H8         -4.5245    4.0235    0.4785 H         1 <0>         0.0000
     32 H9         -4.7599    3.9723   -1.2700 H         1 <0>         0.0000
     33 H10        -3.2998    4.7201   -0.5881 H         1 <0>         0.0000
     34 H11        -0.1531    0.5335    1.9082 H         1 <0>         0.0000
     35 H12         0.7975    1.7493    1.0822 H         1 <0>         0.0000
     36 H13        -1.6176    0.2727   -0.0585 H         1 <0>         0.0000
     37 H14        -0.7009    1.4813   -0.9501 H         1 <0>         0.0000
     38 H15         2.9484    0.3859    1.4229 H         1 <0>         0.0000
     39 H16         0.5915   -1.2082    0.2610 H         1 <0>         0.0000
     40 H17        -2.7965    2.4239   -1.4795 H         1 <0>         0.0000
     41 H18         0.8845    0.1717   -1.5934 H         1 <0>         0.0000
     42 H19         2.2416   -0.6802   -1.2969 H         1 <0>         0.0000
     43 H20         2.9356   -1.9607    5.2985 H         1 <0>         0.0000
     44 H21         3.6858   -0.1599    3.4266 H         1 <0>         0.0000
     45 H22         2.7041   -2.3378    0.6655 H         1 <0>         0.0000
@<TRIPOS>BOND
     1    1    2 ar
     2    1    3 ar
     3    2    5 ar
     4    3    6 ar
     5    4    5 ar
     6    4    6 ar
     7    5    7 1
     8    6   23 1
     9    7   17 am
    10    7   19 2
    11    8   13 1
    12    8   18 am
    13    8   20 2
    14    9   15 1
    15   10   15 1
    16   11   12 1
    17   11   14 1
    18   12   22 1
    19   13   14 1
    20   13   21 1
    21   14   16 1
    22   15   22 1
    23   17   18 1
    24    1   24 1
    25    2   25 1
    26    3   26 1
    27    4   27 1
    28    9   28 1
    29    9   29 1
    30    9   30 1
    31   10   31 1
    32   10   32 1
    33   10   33 1
    34   11   34 1
    35   11   35 1
    36   12   36 1
    37   12   37 1
    38   13   38 1
    39   14   39 1
    40   15   40 1
    41   16   41 1
    42   16   42 1
    43   17   43 1
    44   18   44 1
    45   21   45 1
@<TRIPOS>MOLECULE
LIGAND
   45    45     0     0     0
SMALL
NO_CHARGES

@<TRIPOS>ATOM
      1 C1          1.3200   -1.9638    8.8676 C.ar      1 <0>         0.0000
      2 C2          1.6218   -1.5213    7.5797 C.ar      1 <0>         0.0000
      3 C3          2.1606   -1.6378    9.9320 C.ar      1 <0>         0.0000
      4 C4          3.6050   -0.4271    8.4204 C.ar      1 <0>         0.0000
      5 C5          2.7643   -0.7530    7.3561 C.ar      1 <0>         0.0000
      6 C6          3.3031   -0.8695    9.7084 C.ar      1 <0>         0.0000
      7 C7          3.0854   -0.2826    5.9837 C.2       1 <0>         0.0000
      8 C8          1.9325   -1.0133    2.6768 C.2       1 <0>         0.0000
      9 C9         -1.3566    4.2423   -1.1718 C.3       1 <0>         0.0000
     10 C10        -1.3823    5.0762    1.2040 C.3       1 <0>         0.0000
     11 C11         0.2195    0.8307    0.9188 C.3       1 <0>         0.0000
     12 C12        -1.0001    1.1700    0.0549 C.3       1 <0>         0.0000
     13 C13         2.3649   -0.5352    1.2935 C.3       1 <0>         0.0000
     14 C14         1.1534   -0.2750    0.3710 C.3       1 <0>         0.0000
     15 C15        -1.0699    3.9009    0.2855 C.3       1 <0>         0.0000
     16 N1          1.6681    0.0834   -0.9557 N.3       1 <0>         0.0000
     17 N2          2.6023   -1.0670    4.9540 N.am      1 <0>         0.0000
     18 N3          2.8469   -0.6810    3.6590 N.am      1 <0>         0.0000
     19 O1          3.7293    0.7533    5.8374 O.2       1 <0>         0.0000
     20 O2          0.8915   -1.6405    2.8632 O.2       1 <0>         0.0000
     21 O3          3.2186   -1.5159    0.7230 O.3       1 <0>         0.0000
     22 S1         -2.0492    2.4644    0.7791 S.3       1 <0>         0.0000
     23 Cl1         4.3397   -0.4674   11.0222 Cl        1 <0>         0.0000
     24 H1          0.4302   -2.5616    9.0415 H         1 <0>         0.0000
     25 H2          0.9591   -1.7818    6.7584 H         1 <0>         0.0000
     26 H3          1.9126   -1.9897   10.9300 H         1 <0>         0.0000
     27 H4          4.4953    0.1729    8.2431 H         1 <0>         0.0000
     28 H5         -2.4105    4.5137   -1.2989 H         1 <0>         0.0000
     29 H6         -0.7576    5.0967   -1.5064 H         1 <0>         0.0000
     30 H7         -1.1520    3.3963   -1.8378 H         1 <0>         0.0000
     31 H8         -2.4367    5.3604    1.1134 H         1 <0>         0.0000
     32 H9         -0.7841    5.9563    0.9431 H         1 <0>         0.0000
     33 H10        -1.1964    4.8333    2.2564 H         1 <0>         0.0000
     34 H11        -0.1531    0.5335    1.9082 H         1 <0>         0.0000
     35 H12         0.7975    1.7493    1.0822 H         1 <0>         0.0000
     36 H13        -1.6176    0.2727   -0.0585 H         1 <0>         0.0000
     37 H14        -0.7009    1.4813   -0.9501 H         1 <0>         0.0000
     38 H15         2.9484    0.3859    1.4229 H         1 <0>         0.0000
     39 H16         0.5915   -1.2082    0.2610 H         1 <0>         0.0000
     40 H17        -0.0132    3.6330    0.3910 H         1 <0>         0.0000
     41 H18         0.8845    0.1717   -1.5934 H         1 <0>         0.0000
     42 H19         2.2416   -0.6802   -1.2969 H         1 <0>         0.0000
     43 H20         2.0769   -1.9119    5.1509 H         1 <0>         0.0000
     44 H21         3.6858   -0.1599    3.4266 H         1 <0>         0.0000
     45 H22         2.7041   -2.3378    0.6655 H         1 <0>         0.0000
@<TRIPOS>BOND
     1    1    2 ar
     2    1    3 ar
     3    2    5 ar
     4    3    6 ar
     5    4    5 ar
     6    4    6 ar
     7    5    7 1
     8    6   23 1
     9    7   17 am
    10    7   19 2
    11    8   13 1
    12    8   18 am
    13    8   20 2
    14    9   15 1
    15   10   15 1
    16   11   12 1
    17   11   14 1
    18   12   22 1
    19   13   14 1
    20   13   21 1
    21   14   16 1
    22   15   22 1
    23   17   18 1
    24    1   24 1
    25    2   25 1
    26    3   26 1
    27    4   27 1
    28    9   28 1
    29    9   29 1
    30    9   30 1
    31   10   31 1
    32   10   32 1
    33   10   33 1
    34   11   34 1
    35   11   35 1
    36   12   36 1
    37   12   37 1
    38   13   38 1
    39   14   39 1
    40   15   40 1
    41   16   41 1
    42   16   42 1
    43   17   43 1
    44   18   44 1
    45   21   45 1
@<TRIPOS>MOLECULE
LIGAND
   45    45     0     0     0
SMALL
NO_CHARGES

@<TRIPOS>ATOM
      1 C1          3.9068   -1.8228    9.5212 C.ar      1 <0>         0.0000
      2 C2          4.2280   -1.4546    8.2148 C.ar      1 <0>         0.0000
      3 C3          2.6909   -2.4514    9.7897 C.ar      1 <0>         0.0000
      4 C4          2.1173   -2.3434    7.4453 C.ar      1 <0>         0.0000
      5 C5          3.3333   -1.7148    7.1768 C.ar      1 <0>         0.0000
      6 C6          1.7961   -2.7117    8.7518 C.ar      1 <0>         0.0000
      7 C7          3.6760   -1.3216    5.7855 C.2       1 <0>         0.0000
      8 C8          1.9325   -1.0133    2.6768 C.2       1 <0>         0.0000
      9 C9         -3.5953   -0.8020   -2.4330 C.3       1 <0>         0.0000
     10 C10        -4.0047    1.3935   -1.2699 C.3       1 <0>         0.0000
     11 C11         0.2195    0.8307    0.9188 C.3       1 <0>         0.0000
     12 C12        -1.0001    1.1700    0.0549 C.3       1 <0>         0.0000
     13 C13         2.3649   -0.5352    1.2935 C.3       1 <0>         0.0000
     14 C14         1.1534   -0.2750    0.3710 C.3       1 <0>         0.0000
     15 C15        -2.9606    0.3632   -1.6834 C.3       1 <0>         0.0000
     16 N1          1.6681    0.0834   -0.9557 N.3       1 <0>         0.0000
     17 N2          2.6023   -1.0670    4.9540 N.am      1 <0>         0.0000
     18 N3          2.8469   -0.6810    3.6590 N.am      1 <0>         0.0000
     19 O1          4.8567   -1.2304    5.4589 O.2       1 <0>         0.0000
     20 O2          0.8915   -1.6405    2.8632 O.2       1 <0>         0.0000
     21 O3          3.2186   -1.5159    0.7230 O.3       1 <0>         0.0000
     22 S1         -2.0977   -0.2515   -0.2193 S.3       1 <0>         0.0000
     23 Cl1         0.2961   -3.4877    9.0838 Cl        1 <0>         0.0000
     24 H1          4.6037   -1.6204   10.3291 H         1 <0>         0.0000
     25 H2          5.1785   -0.9653    8.0180 H         1 <0>         0.0000
     26 H3          2.4542   -2.7326   10.8127 H         1 <0>         0.0000
     27 H4          1.4214   -2.5457    6.6335 H         1 <0>         0.0000
     28 H5         -4.3436   -1.2969   -1.8040 H         1 <0>         0.0000
     29 H6         -4.1065   -0.4613   -3.3404 H         1 <0>         0.0000
     30 H7         -2.8540   -1.5571   -2.7183 H         1 <0>         0.0000
     31 H8         -4.7593    0.9323   -0.6229 H         1 <0>         0.0000
     32 H9         -4.5284    1.8023   -2.1412 H         1 <0>         0.0000
     33 H10        -3.5593    2.2264   -0.7139 H         1 <0>         0.0000
     34 H11        -0.1531    0.5335    1.9082 H         1 <0>         0.0000
     35 H12         0.7975    1.7493    1.0822 H         1 <0>         0.0000
     36 H13        -0.6573    1.5138   -0.9268 H         1 <0>         0.0000
     37 H14        -1.5832    1.9849    0.4933 H         1 <0>         0.0000
     38 H15         2.9484    0.3859    1.4229 H         1 <0>         0.0000
     39 H16         0.5915   -1.2082    0.2610 H         1 <0>         0.0000
     40 H17        -2.2171    0.8435   -2.3283 H         1 <0>         0.0000
     41 H18         0.8845    0.1717   -1.5934 H         1 <0>         0.0000
     42 H19         2.2416   -0.6802   -1.2969 H         1 <0>         0.0000
     43 H20         1.6516   -1.1634    5.2936 H         1 <0>         0.0000
     44 H21         3.6858   -0.1599    3.4266 H         1 <0>         0.0000
     45 H22         2.7041   -2.3378    0.6655 H         1 <0>         0.0000
@<TRIPOS>BOND
     1    1    2 ar
     2    1    3 ar
     3    2    5 ar
     4    3    6 ar
     5    4    5 ar
     6    4    6 ar
     7    5    7 1
     8    6   23 1
     9    7   17 am
    10    7   19 2
    11    8   13 1
    12    8   18 am
    13    8   20 2
    14    9   15 1
    15   10   15 1
    16   11   12 1
    17   11   14 1
    18   12   22 1
    19   13   14 1
    20   13   21 1
    21   14   16 1
    22   15   22 1
    23   17   18 1
    24    1   24 1
    25    2   25 1
    26    3   26 1
    27    4   27 1
    28    9   28 1
    29    9   29 1
    30    9   30 1
    31   10   31 1
    32   10   32 1
    33   10   33 1
    34   11   34 1
    35   11   35 1
    36   12   36 1
    37   12   37 1
    38   13   38 1
    39   14   39 1
    40   15   40 1
    41   16   41 1
    42   16   42 1
    43   17   43 1
    44   18   44 1
    45   21   45 1
@<TRIPOS>MOLECULE
LIGAND
   45    45     0     0     0
SMALL
NO_CHARGES

@<TRIPOS>ATOM
      1 C1          2.4230   -4.2883    8.5214 C.ar      1 <0>         0.0000
      2 C2          2.6907   -3.9683    7.1905 C.ar      1 <0>         0.0000
      3 C3          2.2530   -3.2726    9.4623 C.ar      1 <0>         0.0000
      4 C4          2.6187   -1.6170    7.7412 C.ar      1 <0>         0.0000
      5 C5          2.7886   -2.6327    6.8003 C.ar      1 <0>         0.0000
      6 C6          2.3509   -1.9370    9.0722 C.ar      1 <0>         0.0000
      7 C7          3.0744   -2.2928    5.3823 C.2       1 <0>         0.0000
      8 C8          1.9325   -1.0133    2.6768 C.2       1 <0>         0.0000
      9 C9          0.0309    6.1524    1.8816 C.3       1 <0>         0.0000
     10 C10         1.7102    4.7140    3.0862 C.3       1 <0>         0.0000
     11 C11         0.2195    0.8307    0.9188 C.3       1 <0>         0.0000
     12 C12         0.8590    2.2074    1.1305 C.3       1 <0>         0.0000
     13 C13         2.3649   -0.5352    1.2935 C.3       1 <0>         0.0000
     14 C14         1.1534   -0.2750    0.3710 C.3       1 <0>         0.0000
     15 C15         0.8241    4.8515    1.8540 C.3       1 <0>         0.0000
     16 N1          1.6681    0.0834   -0.9557 N.3       1 <0>         0.0000
     17 N2          2.6023   -1.0670    4.9540 N.am      1 <0>         0.0000
     18 N3          2.8469   -0.6810    3.6590 N.am      1 <0>         0.0000
     19 O1          3.7083   -3.0847    4.6892 O.2       1 <0>         0.0000
     20 O2          0.8915   -1.6405    2.8632 O.2       1 <0>         0.0000
     21 O3          3.2186   -1.5159    0.7230 O.3       1 <0>         0.0000
     22 S1         -0.3102    3.4478    1.7590 S.3       1 <0>         0.0000
     23 Cl1         2.1407   -0.6842   10.2336 Cl        1 <0>         0.0000
     24 H1          2.3465   -5.3282    8.8249 H         1 <0>         0.0000
     25 H2          2.8213   -4.7686    6.4665 H         1 <0>         0.0000
     26 H3          2.0449   -3.5371   10.4958 H         1 <0>         0.0000
     27 H4          2.6951   -0.5760    7.4338 H         1 <0>         0.0000
     28 H5         -0.6040    6.1923    2.7738 H         1 <0>         0.0000
     29 H6          0.6947    7.0236    1.9150 H         1 <0>         0.0000
     30 H7         -0.6232    6.2512    1.0077 H         1 <0>         0.0000
     31 H8          1.1011    4.7317    3.9969 H         1 <0>         0.0000
     32 H9          2.4261    5.5404    3.1569 H         1 <0>         0.0000
     33 H10         2.2708    3.7722    3.0836 H         1 <0>         0.0000
     34 H11        -0.6259    0.9652    0.2307 H         1 <0>         0.0000
     35 H12        -0.2197    0.5004    1.8688 H         1 <0>         0.0000
     36 H13         1.2423    2.5738    0.1722 H         1 <0>         0.0000
     37 H14         1.7108    2.1489    1.8142 H         1 <0>         0.0000
     38 H15         2.9484    0.3859    1.4229 H         1 <0>         0.0000
     39 H16         0.5915   -1.2082    0.2610 H         1 <0>         0.0000
     40 H17         1.4510    4.8315    0.9561 H         1 <0>         0.0000
     41 H18         0.8845    0.1717   -1.5934 H         1 <0>         0.0000
     42 H19         2.2416   -0.6802   -1.2969 H         1 <0>         0.0000
     43 H20         2.0849   -0.4638    5.5841 H         1 <0>         0.0000
     44 H21         3.6858   -0.1599    3.4266 H         1 <0>         0.0000
     45 H22         2.7041   -2.3378    0.6655 H         1 <0>         0.0000
@<TRIPOS>BOND
     1    1    2 ar
     2    1    3 ar
     3    2    5 ar
     4    3    6 ar
     5    4    5 ar
     6    4    6 ar
     7    5    7 1
     8    6   23 1
     9    7   17 am
    10    7   19 2
    11    8   13 1
    12    8   18 am
    13    8   20 2
    14    9   15 1
    15   10   15 1
    16   11   12 1
    17   11   14 1
    18   12   22 1
    19   13   14 1
    20   13   21 1
    21   14   16 1
    22   15   22 1
    23   17   18 1
    24    1   24 1
    25    2   25 1
    26    3   26 1
    27    4   27 1
    28    9   28 1
    29    9   29 1
    30    9   30 1
    31   10   31 1
    32   10   32 1
    33   10   33 1
    34   11   34 1
    35   11   35 1
    36   12   36 1
    37   12   37 1
    38   13   38 1
    39   14   39 1
    40   15   40 1
    41   16   41 1
    42   16   42 1
    43   17   43 1
    44   18   44 1
    45   21   45 1
@<TRIPOS>MOLECULE
LIGAND
   45    45     0     0     0
SMALL
NO_CHARGES

@<TRIPOS>ATOM
      1 C1          0.9205   -1.8510    8.8077 C.ar      1 <0>         0.0000
      2 C2          1.2701   -1.5831    7.4842 C.ar      1 <0>         0.0000
      3 C3          1.9107   -2.1474    9.7444 C.ar      1 <0>         0.0000
      4 C4          3.6002   -1.9080    8.0341 C.ar      1 <0>         0.0000
      5 C5          2.6100   -1.6117    7.0974 C.ar      1 <0>         0.0000
      6 C6          3.2505   -2.1759    9.3576 C.ar      1 <0>         0.0000
      7 C7          2.9815   -1.3268    5.6872 C.2       1 <0>         0.0000
      8 C8          1.9325   -1.0133    2.6768 C.2       1 <0>         0.0000
      9 C9          0.0309    6.1524    1.8816 C.3       1 <0>         0.0000
     10 C10         1.7102    4.7140    3.0862 C.3       1 <0>         0.0000
     11 C11         0.2195    0.8307    0.9188 C.3       1 <0>         0.0000
     12 C12         0.8590    2.2074    1.1305 C.3       1 <0>         0.0000
     13 C13         2.3649   -0.5352    1.2935 C.3       1 <0>         0.0000
     14 C14         1.1534   -0.2750    0.3710 C.3       1 <0>         0.0000
     15 C15         0.8241    4.8515    1.8540 C.3       1 <0>         0.0000
     16 N1          1.6681    0.0834   -0.9557 N.3       1 <0>         0.0000
     17 N2          2.1084   -0.5131    4.9911 N.am      1 <0>         0.0000
     18 N3          2.3999   -0.1941    3.6876 N.am      1 <0>         0.0000
     19 O1          4.0191   -1.8000    5.2304 O.2       1 <0>         0.0000
     20 O2          1.2610   -2.0296    2.8442 O.2       1 <0>         0.0000
     21 O3          3.2186   -1.5159    0.7230 O.3       1 <0>         0.0000
     22 S1         -0.3102    3.4478    1.7590 S.3       1 <0>         0.0000
     23 Cl1         4.4719   -2.5412   10.5140 Cl        1 <0>         0.0000
     24 H1         -0.1227   -1.8284    9.1087 H         1 <0>         0.0000
     25 H2          0.4895   -1.3536    6.7634 H         1 <0>         0.0000
     26 H3          1.6231   -2.3540   10.7720 H         1 <0>         0.0000
     27 H4          4.6447   -1.9291    7.7296 H         1 <0>         0.0000
     28 H5         -0.6040    6.1923    2.7738 H         1 <0>         0.0000
     29 H6          0.6947    7.0236    1.9150 H         1 <0>         0.0000
     30 H7         -0.6232    6.2512    1.0077 H         1 <0>         0.0000
     31 H8          1.1011    4.7317    3.9969 H         1 <0>         0.0000
     32 H9          2.4261    5.5404    3.1569 H         1 <0>         0.0000
     33 H10         2.2708    3.7722    3.0836 H         1 <0>         0.0000
     34 H11        -0.6259    0.9652    0.2307 H         1 <0>         0.0000
     35 H12        -0.2197    0.5004    1.8688 H         1 <0>         0.0000
     36 H13         1.2423    2.5738    0.1722 H         1 <0>         0.0000
     37 H14         1.7108    2.1489    1.8142 H         1 <0>         0.0000
     38 H15         2.9484    0.3859    1.4229 H         1 <0>         0.0000
     39 H16         0.5915   -1.2082    0.2610 H         1 <0>         0.0000
     40 H17         1.4510    4.8315    0.9561 H         1 <0>         0.0000
     41 H18         0.8845    0.1717   -1.5934 H         1 <0>         0.0000
     42 H19         2.2416   -0.6802   -1.2969 H         1 <0>         0.0000
     43 H20         1.2682   -0.1582    5.4344 H         1 <0>         0.0000
     44 H21         2.9499    0.6302    3.4697 H         1 <0>         0.0000
     45 H22         2.7041   -2.3378    0.6655 H         1 <0>         0.0000
@<TRIPOS>BOND
     1    1    2 ar
     2    1    3 ar
     3    2    5 ar
     4    3    6 ar
     5    4    5 ar
     6    4    6 ar
     7    5    7 1
     8    6   23 1
     9    7   17 am
    10    7   19 2
    11    8   13 1
    12    8   18 am
    13    8   20 2
    14    9   15 1
    15   10   15 1
    16   11   12 1
    17   11   14 1
    18   12   22 1
    19   13   14 1
    20   13   21 1
    21   14   16 1
    22   15   22 1
    23   17   18 1
    24    1   24 1
    25    2   25 1
    26    3   26 1
    27    4   27 1
    28    9   28 1
    29    9   29 1
    30    9   30 1
    31   10   31 1
    32   10   32 1
    33   10   33 1
    34   11   34 1
    35   11   35 1
    36   12   36 1
    37   12   37 1
    38   13   38 1
    39   14   39 1
    40   15   40 1
    41   16   41 1
    42   16   42 1
    43   17   43 1
    44   18   44 1
    45   21   45 1
@<TRIPOS>MOLECULE
LIGAND
   45    45     0     0     0
SMALL
NO_CHARGES

@<TRIPOS>ATOM
      1 C1          3.8916   -2.8784    9.2192 C.ar      1 <0>         0.0000
      2 C2          4.2123   -2.5093    7.9128 C.ar      1 <0>         0.0000
      3 C3          2.6918   -2.4530    9.7895 C.ar      1 <0>         0.0000
      4 C4          2.1335   -1.2894    7.7472 C.ar      1 <0>         0.0000
      5 C5          3.3333   -1.7148    7.1768 C.ar      1 <0>         0.0000
      6 C6          1.8128   -1.6585    9.0535 C.ar      1 <0>         0.0000
      7 C7          3.6760   -1.3216    5.7855 C.2       1 <0>         0.0000
      8 C8          1.9325   -1.0133    2.6768 C.2       1 <0>         0.0000
      9 C9         -3.5953   -0.8020   -2.4330 C.3       1 <0>         0.0000
     10 C10        -4.0047    1.3935   -1.2699 C.3       1 <0>         0.0000
     11 C11         0.2195    0.8307    0.9188 C.3       1 <0>         0.0000
     12 C12        -1.0001    1.1700    0.0549 C.3       1 <0>         0.0000
     13 C13         2.3649   -0.5352    1.2935 C.3       1 <0>         0.0000
     14 C14         1.1534   -0.2750    0.3710 C.3       1 <0>         0.0000
     15 C15        -2.9606    0.3632   -1.6834 C.3       1 <0>         0.0000
     16 N1          1.6681    0.0834   -0.9557 N.3       1 <0>         0.0000
     17 N2          2.6023   -1.0670    4.9540 N.am      1 <0>         0.0000
     18 N3          2.8469   -0.6810    3.6590 N.am      1 <0>         0.0000
     19 O1          4.8567   -1.2304    5.4589 O.2       1 <0>         0.0000
     20 O2          0.8915   -1.6405    2.8632 O.2       1 <0>         0.0000
     21 O3          3.2186   -1.5159    0.7230 O.3       1 <0>         0.0000
     22 S1         -2.0977   -0.2515   -0.2193 S.3       1 <0>         0.0000
     23 Cl1         0.3323   -1.1343    9.7578 Cl        1 <0>         0.0000
     24 H1          4.5760   -3.4972    9.7919 H         1 <0>         0.0000
     25 H2          5.1502   -2.8469    7.4793 H         1 <0>         0.0000
     26 H3          2.4554   -2.7484   10.8085 H         1 <0>         0.0000
     27 H4          1.4494   -0.6701    7.1704 H         1 <0>         0.0000
     28 H5         -4.3436   -1.2969   -1.8040 H         1 <0>         0.0000
     29 H6         -4.1065   -0.4613   -3.3404 H         1 <0>         0.0000
     30 H7         -2.8540   -1.5571   -2.7183 H         1 <0>         0.0000
     31 H8         -4.7593    0.9323   -0.6229 H         1 <0>         0.0000
     32 H9         -4.5284    1.8023   -2.1412 H         1 <0>         0.0000
     33 H10        -3.5593    2.2264   -0.7139 H         1 <0>         0.0000
     34 H11        -0.1531    0.5335    1.9082 H         1 <0>         0.0000
     35 H12         0.7975    1.7493    1.0822 H         1 <0>         0.0000
     36 H13        -0.6573    1.5138   -0.9268 H         1 <0>         0.0000
     37 H14        -1.5832    1.9849    0.4933 H         1 <0>         0.0000
     38 H15         2.9484    0.3859    1.4229 H         1 <0>         0.0000
     39 H16         0.5915   -1.2082    0.2610 H         1 <0>         0.0000
     40 H17        -2.2171    0.8435   -2.3283 H         1 <0>         0.0000
     41 H18         0.8845    0.1717   -1.5934 H         1 <0>         0.0000
     42 H19         2.2416   -0.6802   -1.2969 H         1 <0>         0.0000
     43 H20         1.6516   -1.1634    5.2936 H         1 <0>         0.0000
     44 H21         3.6858   -0.1599    3.4266 H         1 <0>         0.0000
     45 H22         2.7041   -2.3378    0.6655 H         1 <0>         0.0000
@<TRIPOS>BOND
     1    1    2 ar
     2    1    3 ar
     3    2    5 ar
     4    3    6 ar
     5    4    5 ar
     6    4    6 ar
     7    5    7 1
     8    6   23 1
     9    7   17 am
    10    7   19 2
    11    8   13 1
    12    8   18 am
    13    8   20 2
    14    9   15 1
    15   10   15 1
    16   11   12 1
    17   11   14 1
    18   12   22 1
    19   13   14 1
    20   13   21 1
    21   14   16 1
    22   15   22 1
    23   17   18 1
    24    1   24 1
    25    2   25 1
    26    3   26 1
    27    4   27 1
    28    9   28 1
    29    9   29 1
    30    9   30 1
    31   10   31 1
    32   10   32 1
    33   10   33 1
    34   11   34 1
    35   11   35 1
    36   12   36 1
    37   12   37 1
    38   13   38 1
    39   14   39 1
    40   15   40 1
    41   16   41 1
    42   16   42 1
    43   17   43 1
    44   18   44 1
    45   21   45 1
@<TRIPOS>MOLECULE
LIGAND
   45    45     0     0     0
SMALL
NO_CHARGES

@<TRIPOS>ATOM
      1 C1         -0.3007    0.0342    9.1181 C.ar      1 <0>         0.0000
      2 C2         -0.0572    0.4134    7.7980 C.ar      1 <0>         0.0000
      3 C3          0.2080   -1.1709    9.6027 C.ar      1 <0>         0.0000
      4 C4          1.2035   -1.6176    7.4472 C.ar      1 <0>         0.0000
      5 C5          0.6949   -0.4125    6.9626 C.ar      1 <0>         0.0000
      6 C6          0.9601   -1.9967    8.7673 C.ar      1 <0>         0.0000
      7 C7          0.9532   -0.0081    5.5563 C.2       1 <0>         0.0000
      8 C8          1.9325   -1.0133    2.6768 C.2       1 <0>         0.0000
      9 C9         -4.5752    3.1779    0.0331 C.3       1 <0>         0.0000
     10 C10        -2.7668    3.3107   -1.7140 C.3       1 <0>         0.0000
     11 C11         0.2195    0.8307    0.9188 C.3       1 <0>         0.0000
     12 C12        -1.0001    1.1700    0.0549 C.3       1 <0>         0.0000
     13 C13         2.3649   -0.5352    1.2935 C.3       1 <0>         0.0000
     14 C14         1.1534   -0.2750    0.3710 C.3       1 <0>         0.0000
     15 C15        -3.3066    2.5373   -0.5169 C.3       1 <0>         0.0000
     16 N1          1.6681    0.0834   -0.9557 N.3       1 <0>         0.0000
     17 N2          2.1084   -0.5131    4.9911 N.am      1 <0>         0.0000
     18 N3          2.3999   -0.1941    3.6876 N.am      1 <0>         0.0000
     19 O1          0.1465    0.7178    4.9806 O.2       1 <0>         0.0000
     20 O2          1.2610   -2.0296    2.8442 O.2       1 <0>         0.0000
     21 O3          3.2186   -1.5159    0.7230 O.3       1 <0>         0.0000
     22 S1         -2.0492    2.4644    0.7791 S.3       1 <0>         0.0000
     23 Cl1         1.5879   -3.4833    9.3661 Cl        1 <0>         0.0000
     24 H1         -0.8859    0.6775    9.7685 H         1 <0>         0.0000
     25 H2         -0.4589    1.3547    7.4319 H         1 <0>         0.0000
     26 H3          0.0102   -1.4532   10.6336 H         1 <0>         0.0000
     27 H4          1.7904   -2.2596    6.7933 H         1 <0>         0.0000
     28 H5         -4.3764    4.2092    0.3452 H         1 <0>         0.0000
     29 H6         -5.3650    3.2137   -0.7256 H         1 <0>         0.0000
     30 H7         -4.9604    2.6385    0.9059 H         1 <0>         0.0000
     31 H8         -2.5401    4.3441   -1.4288 H         1 <0>         0.0000
     32 H9         -3.5004    3.3505   -2.5268 H         1 <0>         0.0000
     33 H10        -1.8438    2.8672   -2.1048 H         1 <0>         0.0000
     34 H11        -0.1531    0.5335    1.9082 H         1 <0>         0.0000
     35 H12         0.7975    1.7493    1.0822 H         1 <0>         0.0000
     36 H13        -1.6176    0.2727   -0.0585 H         1 <0>         0.0000
     37 H14        -0.7009    1.4813   -0.9501 H         1 <0>         0.0000
     38 H15         2.9484    0.3859    1.4229 H         1 <0>         0.0000
     39 H16         0.5915   -1.2082    0.2610 H         1 <0>         0.0000
     40 H17        -3.5264    1.5088   -0.8227 H         1 <0>         0.0000
     41 H18         0.8845    0.1717   -1.5934 H         1 <0>         0.0000
     42 H19         2.2416   -0.6802   -1.2969 H         1 <0>         0.0000
     43 H20         2.7293   -1.1081    5.5287 H         1 <0>         0.0000
     44 H21         2.9499    0.6302    3.4697 H         1 <0>         0.0000
     45 H22         2.7041   -2.3378    0.6655 H         1 <0>         0.0000
@<TRIPOS>BOND
     1    1    2 ar
     2    1    3 ar
     3    2    5 ar
     4    3    6 ar
     5    4    5 ar
     6    4    6 ar
     7    5    7 1
     8    6   23 1
     9    7   17 am
    10    7   19 2
    11    8   13 1
    12    8   18 am
    13    8   20 2
    14    9   15 1
    15   10   15 1
    16   11   12 1
    17   11   14 1
    18   12   22 1
    19   13   14 1
    20   13   21 1
    21   14   16 1
    22   15   22 1
    23   17   18 1
    24    1   24 1
    25    2   25 1
    26    3   26 1
    27    4   27 1
    28    9   28 1
    29    9   29 1
    30    9   30 1
    31   10   31 1
    32   10   32 1
    33   10   33 1
    34   11   34 1
    35   11   35 1
    36   12   36 1
    37   12   37 1
    38   13   38 1
    39   14   39 1
    40   15   40 1
    41   16   41 1
    42   16   42 1
    43   17   43 1
    44   18   44 1
    45   21   45 1
@<TRIPOS>MOLECULE
LIGAND
   45    45     0     0     0
SMALL
NO_CHARGES

@<TRIPOS>ATOM
      1 C1         -0.2959   -1.7283    8.4655 C.ar      1 <0>         0.0000
      2 C2          0.0807   -1.4558    7.1504 C.ar      1 <0>         0.0000
      3 C3         -1.6473   -1.8121    8.8008 C.ar      1 <0>         0.0000
      4 C4         -2.2454   -1.3505    6.5060 C.ar      1 <0>         0.0000
      5 C5         -0.8940   -1.2668    6.1707 C.ar      1 <0>         0.0000
      6 C6         -2.6221   -1.6232    7.8211 C.ar      1 <0>         0.0000
      7 C7         -0.4919   -0.9759    4.7701 C.2       1 <0>         0.0000
      8 C8          1.9325   -1.0133    2.6768 C.2       1 <0>         0.0000
      9 C9         -2.8125    0.5348   -2.7511 C.3       1 <0>         0.0000
     10 C10        -2.5812    3.0315   -2.9817 C.3       1 <0>         0.0000
     11 C11         1.5761    0.1765   -1.0474 C.3       1 <0>         0.0000
     12 C12         0.4360    0.4372   -2.0380 C.3       1 <0>         0.0000
     13 C13         2.3649   -0.5352    1.2935 C.3       1 <0>         0.0000
     14 C14         1.1534   -0.2750    0.3710 C.3       1 <0>         0.0000
     15 C15        -1.8423    1.7019   -2.8899 C.3       1 <0>         0.0000
     16 N1          0.3597   -1.5080    0.3138 N.3       1 <0>         0.0000
     17 N2          0.7320   -0.3536    4.6161 N.am      1 <0>         0.0000
     18 N3          1.1743   -0.0714    3.3469 N.am      1 <0>         0.0000
     19 O1         -1.2351   -1.3059    3.8493 O.2       1 <0>         0.0000
     20 O2          2.2555   -2.1109    3.1269 O.2       1 <0>         0.0000
     21 O3          3.2186   -1.5159    0.7230 O.3       1 <0>         0.0000
     22 S1         -0.7139    1.7277   -1.4786 S.3       1 <0>         0.0000
     23 Cl1        -4.2894   -1.7271    8.2355 Cl        1 <0>         0.0000
     24 H1          0.4631   -1.8757    9.2280 H         1 <0>         0.0000
     25 H2          1.1369   -1.3929    6.9013 H         1 <0>         0.0000
     26 H3         -1.9258   -2.0251    9.8297 H         1 <0>         0.0000
     27 H4         -3.0036   -1.2033    5.7395 H         1 <0>         0.0000
     28 H5         -3.4266    0.6553   -1.8516 H         1 <0>         0.0000
     29 H6         -3.4950    0.4797   -3.6065 H         1 <0>         0.0000
     30 H7         -2.2889   -0.4243   -2.6659 H         1 <0>         0.0000
     31 H8         -3.1918    3.1904   -2.0858 H         1 <0>         0.0000
     32 H9         -3.2564    3.0539   -3.8443 H         1 <0>         0.0000
     33 H10        -1.8903    3.8784   -3.0633 H         1 <0>         0.0000
     34 H11         2.1631    1.1018   -0.9736 H         1 <0>         0.0000
     35 H12         2.2520   -0.5707   -1.4824 H         1 <0>         0.0000
     36 H13        -0.1421   -0.4839   -2.1668 H         1 <0>         0.0000
     37 H14         0.8216    0.7132   -3.0237 H         1 <0>         0.0000
     38 H15         2.9484    0.3859    1.4229 H         1 <0>         0.0000
     39 H16         0.5249    0.4957    0.8291 H         1 <0>         0.0000
     40 H17        -1.2390    1.5625   -3.7933 H         1 <0>         0.0000
     41 H18        -0.4842   -1.3249   -0.2178 H         1 <0>         0.0000
     42 H19         0.0690   -1.7492    1.2550 H         1 <0>         0.0000
     43 H20         1.2931   -0.1098    5.4249 H         1 <0>         0.0000
     44 H21         0.9480    0.8148    2.9078 H         1 <0>         0.0000
     45 H22         2.7041   -2.3378    0.6655 H         1 <0>         0.0000
@<TRIPOS>BOND
     1    1    2 ar
     2    1    3 ar
     3    2    5 ar
     4    3    6 ar
     5    4    5 ar
     6    4    6 ar
     7    5    7 1
     8    6   23 1
     9    7   17 am
    10    7   19 2
    11    8   13 1
    12    8   18 am
    13    8   20 2
    14    9   15 1
    15   10   15 1
    16   11   12 1
    17   11   14 1
    18   12   22 1
    19   13   14 1
    20   13   21 1
    21   14   16 1
    22   15   22 1
    23   17   18 1
    24    1   24 1
    25    2   25 1
    26    3   26 1
    27    4   27 1
    28    9   28 1
    29    9   29 1
    30    9   30 1
    31   10   31 1
    32   10   32 1
    33   10   33 1
    34   11   34 1
    35   11   35 1
    36   12   36 1
    37   12   37 1
    38   13   38 1
    39   14   39 1
    40   15   40 1
    41   16   41 1
    42   16   42 1
    43   17   43 1
    44   18   44 1
    45   21   45 1
@<TRIPOS>MOLECULE
LIGAND
   45    45     0     0     0
SMALL
NO_CHARGES

@<TRIPOS>ATOM
      1 C1          1.4050   -2.4049    8.7677 C.ar      1 <0>         0.0000
      2 C2          1.6744   -2.0859    7.4368 C.ar      1 <0>         0.0000
      3 C3          2.2499   -3.2707    9.4621 C.ar      1 <0>         0.0000
      4 C4          3.6334   -3.4986    7.4947 C.ar      1 <0>         0.0000
      5 C5          2.7886   -2.6327    6.8003 C.ar      1 <0>         0.0000
      6 C6          3.3641   -3.8176    8.8256 C.ar      1 <0>         0.0000
      7 C7          3.0744   -2.2928    5.3823 C.2       1 <0>         0.0000
      8 C8          1.9325   -1.0133    2.6768 C.2       1 <0>         0.0000
      9 C9         -4.2967    1.3927   -0.3375 C.3       1 <0>         0.0000
     10 C10        -4.0071    3.8901   -0.4781 C.3       1 <0>         0.0000
     11 C11         0.2195    0.8307    0.9188 C.3       1 <0>         0.0000
     12 C12        -1.0001    1.1700    0.0549 C.3       1 <0>         0.0000
     13 C13         2.3649   -0.5352    1.2935 C.3       1 <0>         0.0000
     14 C14         1.1534   -0.2750    0.3710 C.3       1 <0>         0.0000
     15 C15        -3.3066    2.5373   -0.5169 C.3       1 <0>         0.0000
     16 N1          1.6681    0.0834   -0.9557 N.3       1 <0>         0.0000
     17 N2          2.6023   -1.0670    4.9540 N.am      1 <0>         0.0000
     18 N3          2.8469   -0.6810    3.6590 N.am      1 <0>         0.0000
     19 O1          3.7083   -3.0847    4.6892 O.2       1 <0>         0.0000
     20 O2          0.8915   -1.6405    2.8632 O.2       1 <0>         0.0000
     21 O3          3.2186   -1.5159    0.7230 O.3       1 <0>         0.0000
     22 S1         -2.0492    2.4644    0.7791 S.3       1 <0>         0.0000
     23 Cl1         4.4064   -4.8856    9.6833 Cl        1 <0>         0.0000
     24 H1          0.5376   -1.9787    9.2631 H         1 <0>         0.0000
     25 H2          1.0086   -1.4100    6.9061 H         1 <0>         0.0000
     26 H3          2.0273   -3.5102   10.4987 H         1 <0>         0.0000
     27 H4          4.5022   -3.9233    6.9958 H         1 <0>         0.0000
     28 H5         -4.8186    1.4878    0.6213 H         1 <0>         0.0000
     29 H6         -5.0586    1.3975   -1.1249 H         1 <0>         0.0000
     30 H7         -3.7990    0.4164   -0.3457 H         1 <0>         0.0000
     31 H8         -4.5245    4.0235    0.4785 H         1 <0>         0.0000
     32 H9         -4.7599    3.9723   -1.2700 H         1 <0>         0.0000
     33 H10        -3.2998    4.7201   -0.5881 H         1 <0>         0.0000
     34 H11        -0.1531    0.5335    1.9082 H         1 <0>         0.0000
     35 H12         0.7975    1.7493    1.0822 H         1 <0>         0.0000
     36 H13        -1.6176    0.2727   -0.0585 H         1 <0>         0.0000
     37 H14        -0.7009    1.4813   -0.9501 H         1 <0>         0.0000
     38 H15         2.9484    0.3859    1.4229 H         1 <0>         0.0000
     39 H16         0.5915   -1.2082    0.2610 H         1 <0>         0.0000
     40 H17        -2.7965    2.4239   -1.4795 H         1 <0>         0.0000
     41 H18         0.8845    0.1717   -1.5934 H         1 <0>         0.0000
     42 H19         2.2416   -0.6802   -1.2969 H         1 <0>         0.0000
     43 H20         2.0849   -0.4638    5.5841 H         1 <0>         0.0000
     44 H21         3.6858   -0.1599    3.4266 H         1 <0>         0.0000
     45 H22         2.7041   -2.3378    0.6655 H         1 <0>         0.0000
@<TRIPOS>BOND
     1    1    2 ar
     2    1    3 ar
     3    2    5 ar
     4    3    6 ar
     5    4    5 ar
     6    4    6 ar
     7    5    7 1
     8    6   23 1
     9    7   17 am
    10    7   19 2
    11    8   13 1
    12    8   18 am
    13    8   20 2
    14    9   15 1
    15   10   15 1
    16   11   12 1
    17   11   14 1
    18   12   22 1
    19   13   14 1
    20   13   21 1
    21   14   16 1
    22   15   22 1
    23   17   18 1
    24    1   24 1
    25    2   25 1
    26    3   26 1
    27    4   27 1
    28    9   28 1
    29    9   29 1
    30    9   30 1
    31   10   31 1
    32   10   32 1
    33   10   33 1
    34   11   34 1
    35   11   35 1
    36   12   36 1
    37   12   37 1
    38   13   38 1
    39   14   39 1
    40   15   40 1
    41   16   41 1
    42   16   42 1
    43   17   43 1
    44   18   44 1
    45   21   45 1
@<TRIPOS>MOLECULE
LIGAND
   45    45     0     0     0
SMALL
NO_CHARGES

@<TRIPOS>ATOM
      1 C1          2.3780   -0.2776    9.6931 C.ar      1 <0>         0.0000
      2 C2          2.6800    0.1631    8.4046 C.ar      1 <0>         0.0000
      3 C3          2.1604   -1.6343    9.9331 C.ar      1 <0>         0.0000
      4 C4          2.5467   -2.1098    7.5961 C.ar      1 <0>         0.0000
      5 C5          2.7643   -0.7530    7.3561 C.ar      1 <0>         0.0000
      6 C6          2.2447   -2.5504    8.8846 C.ar      1 <0>         0.0000
      7 C7          3.0854   -0.2826    5.9837 C.2       1 <0>         0.0000
      8 C8          1.9325   -1.0133    2.6768 C.2       1 <0>         0.0000
      9 C9         -3.5953   -0.8020   -2.4330 C.3       1 <0>         0.0000
     10 C10        -4.0047    1.3935   -1.2699 C.3       1 <0>         0.0000
     11 C11         0.2195    0.8307    0.9188 C.3       1 <0>         0.0000
     12 C12        -1.0001    1.1700    0.0549 C.3       1 <0>         0.0000
     13 C13         2.3649   -0.5352    1.2935 C.3       1 <0>         0.0000
     14 C14         1.1534   -0.2750    0.3710 C.3       1 <0>         0.0000
     15 C15        -2.9606    0.3632   -1.6834 C.3       1 <0>         0.0000
     16 N1          1.6681    0.0834   -0.9557 N.3       1 <0>         0.0000
     17 N2          2.6023   -1.0670    4.9540 N.am      1 <0>         0.0000
     18 N3          2.8469   -0.6810    3.6590 N.am      1 <0>         0.0000
     19 O1          3.7293    0.7533    5.8374 O.2       1 <0>         0.0000
     20 O2          0.8915   -1.6405    2.8632 O.2       1 <0>         0.0000
     21 O3          3.2186   -1.5159    0.7230 O.3       1 <0>         0.0000
     22 S1         -2.0977   -0.2515   -0.2193 S.3       1 <0>         0.0000
     23 Cl1         1.9766   -4.2245    9.1816 Cl        1 <0>         0.0000
     24 H1          2.3127    0.4358   10.5093 H         1 <0>         0.0000
     25 H2          2.8474    1.2228    8.2300 H         1 <0>         0.0000
     26 H3          1.9260   -1.9630   10.9423 H         1 <0>         0.0000
     27 H4          2.6137   -2.8222    6.7763 H         1 <0>         0.0000
     28 H5         -4.3436   -1.2969   -1.8040 H         1 <0>         0.0000
     29 H6         -4.1065   -0.4613   -3.3404 H         1 <0>         0.0000
     30 H7         -2.8540   -1.5571   -2.7183 H         1 <0>         0.0000
     31 H8         -4.7593    0.9323   -0.6229 H         1 <0>         0.0000
     32 H9         -4.5284    1.8023   -2.1412 H         1 <0>         0.0000
     33 H10        -3.5593    2.2264   -0.7139 H         1 <0>         0.0000
     34 H11        -0.1531    0.5335    1.9082 H         1 <0>         0.0000
     35 H12         0.7975    1.7493    1.0822 H         1 <0>         0.0000
     36 H13        -0.6573    1.5138   -0.9268 H         1 <0>         0.0000
     37 H14        -1.5832    1.9849    0.4933 H         1 <0>         0.0000
     38 H15         2.9484    0.3859    1.4229 H         1 <0>         0.0000
     39 H16         0.5915   -1.2082    0.2610 H         1 <0>         0.0000
     40 H17        -2.2171    0.8435   -2.3283 H         1 <0>         0.0000
     41 H18         0.8845    0.1717   -1.5934 H         1 <0>         0.0000
     42 H19         2.2416   -0.6802   -1.2969 H         1 <0>         0.0000
     43 H20         2.0769   -1.9119    5.1509 H         1 <0>         0.0000
     44 H21         3.6858   -0.1599    3.4266 H         1 <0>         0.0000
     45 H22         2.7041   -2.3378    0.6655 H         1 <0>         0.0000
@<TRIPOS>BOND
     1    1    2 ar
     2    1    3 ar
     3    2    5 ar
     4    3    6 ar
     5    4    5 ar
     6    4    6 ar
     7    5    7 1
     8    6   23 1
     9    7   17 am
    10    7   19 2
    11    8   13 1
    12    8   18 am
    13    8   20 2
    14    9   15 1
    15   10   15 1
    16   11   12 1
    17   11   14 1
    18   12   22 1
    19   13   14 1
    20   13   21 1
    21   14   16 1
    22   15   22 1
    23   17   18 1
    24    1   24 1
    25    2   25 1
    26    3   26 1
    27    4   27 1
    28    9   28 1
    29    9   29 1
    30    9   30 1
    31   10   31 1
    32   10   32 1
    33   10   33 1
    34   11   34 1
    35   11   35 1
    36   12   36 1
    37   12   37 1
    38   13   38 1
    39   14   39 1
    40   15   40 1
    41   16   41 1
    42   16   42 1
    43   17   43 1
    44   18   44 1
    45   21   45 1
@<TRIPOS>MOLECULE
LIGAND
   45    45     0     0     0
SMALL
NO_CHARGES

@<TRIPOS>ATOM
      1 C1          0.6321   -1.4924    8.8155 C.ar      1 <0>         0.0000
      2 C2          0.9476   -1.0964    7.5158 C.ar      1 <0>         0.0000
      3 C3          1.0220   -0.7046    9.8987 C.ar      1 <0>         0.0000
      4 C4          2.0429    0.8750    8.3822 C.ar      1 <0>         0.0000
      5 C5          1.6530    0.0872    7.2991 C.ar      1 <0>         0.0000
      6 C6          1.7274    0.4791    9.6820 C.ar      1 <0>         0.0000
      7 C7          1.9892    0.5079    5.9143 C.2       1 <0>         0.0000
      8 C8          1.9325   -1.0133    2.6768 C.2       1 <0>         0.0000
      9 C9          1.4564    5.4762    1.2996 C.3       1 <0>         0.0000
     10 C10         0.2261    5.4824    3.4965 C.3       1 <0>         0.0000
     11 C11         0.2195    0.8307    0.9188 C.3       1 <0>         0.0000
     12 C12         0.8590    2.2074    1.1305 C.3       1 <0>         0.0000
     13 C13         2.3649   -0.5352    1.2935 C.3       1 <0>         0.0000
     14 C14         1.1534   -0.2750    0.3710 C.3       1 <0>         0.0000
     15 C15         0.8895    4.6225    2.4275 C.3       1 <0>         0.0000
     16 N1          1.6681    0.0834   -0.9557 N.3       1 <0>         0.0000
     17 N2          2.1084   -0.5131    4.9911 N.am      1 <0>         0.0000
     18 N3          2.3999   -0.1941    3.6876 N.am      1 <0>         0.0000
     19 O1          2.1244    1.7030    5.6640 O.2       1 <0>         0.0000
     20 O2          1.2610   -2.0296    2.8442 O.2       1 <0>         0.0000
     21 O3          3.2186   -1.5159    0.7230 O.3       1 <0>         0.0000
     22 S1         -0.3102    3.4478    1.7590 S.3       1 <0>         0.0000
     23 Cl1         2.2078    1.4509   11.0189 Cl        1 <0>         0.0000
     24 H1          0.0826   -2.4138    8.9840 H         1 <0>         0.0000
     25 H2          0.6384   -1.7188    6.6799 H         1 <0>         0.0000
     26 H3          0.7691   -1.0259   10.9058 H         1 <0>         0.0000
     27 H4          2.5926    1.7982    8.2102 H         1 <0>         0.0000
     28 H5          0.6599    6.0638    0.8297 H         1 <0>         0.0000
     29 H6          2.2059    6.1832    1.6727 H         1 <0>         0.0000
     30 H7          1.9195    4.8646    0.5169 H         1 <0>         0.0000
     31 H8         -0.5894    6.0701    3.0604 H         1 <0>         0.0000
     32 H9          0.9374    6.1894    3.9378 H         1 <0>         0.0000
     33 H10        -0.2008    4.8752    4.3030 H         1 <0>         0.0000
     34 H11        -0.6259    0.9652    0.2307 H         1 <0>         0.0000
     35 H12        -0.2197    0.5004    1.8688 H         1 <0>         0.0000
     36 H13         1.2423    2.5738    0.1722 H         1 <0>         0.0000
     37 H14         1.7108    2.1489    1.8142 H         1 <0>         0.0000
     38 H15         2.9484    0.3859    1.4229 H         1 <0>         0.0000
     39 H16         0.5915   -1.2082    0.2610 H         1 <0>         0.0000
     40 H17         1.7002    4.0441    2.8832 H         1 <0>         0.0000
     41 H18         0.8845    0.1717   -1.5934 H         1 <0>         0.0000
     42 H19         2.2416   -0.6802   -1.2969 H         1 <0>         0.0000
     43 H20         1.9830   -1.4798    5.2709 H         1 <0>         0.0000
     44 H21         2.9499    0.6302    3.4697 H         1 <0>         0.0000
     45 H22         2.7041   -2.3378    0.6655 H         1 <0>         0.0000
@<TRIPOS>BOND
     1    1    2 ar
     2    1    3 ar
     3    2    5 ar
     4    3    6 ar
     5    4    5 ar
     6    4    6 ar
     7    5    7 1
     8    6   23 1
     9    7   17 am
    10    7   19 2
    11    8   13 1
    12    8   18 am
    13    8   20 2
    14    9   15 1
    15   10   15 1
    16   11   12 1
    17   11   14 1
    18   12   22 1
    19   13   14 1
    20   13   21 1
    21   14   16 1
    22   15   22 1
    23   17   18 1
    24    1   24 1
    25    2   25 1
    26    3   26 1
    27    4   27 1
    28    9   28 1
    29    9   29 1
    30    9   30 1
    31   10   31 1
    32   10   32 1
    33   10   33 1
    34   11   34 1
    35   11   35 1
    36   12   36 1
    37   12   37 1
    38   13   38 1
    39   14   39 1
    40   15   40 1
    41   16   41 1
    42   16   42 1
    43   17   43 1
    44   18   44 1
    45   21   45 1
@<TRIPOS>MOLECULE
LIGAND
   45    45     0     0     0
SMALL
NO_CHARGES

@<TRIPOS>ATOM
      1 C1         -0.2959   -1.7283    8.4655 C.ar      1 <0>         0.0000
      2 C2          0.0807   -1.4558    7.1504 C.ar      1 <0>         0.0000
      3 C3         -1.6473   -1.8121    8.8008 C.ar      1 <0>         0.0000
      4 C4         -2.2454   -1.3505    6.5060 C.ar      1 <0>         0.0000
      5 C5         -0.8940   -1.2668    6.1707 C.ar      1 <0>         0.0000
      6 C6         -2.6221   -1.6232    7.8211 C.ar      1 <0>         0.0000
      7 C7         -0.4919   -0.9759    4.7701 C.2       1 <0>         0.0000
      8 C8          1.9325   -1.0133    2.6768 C.2       1 <0>         0.0000
      9 C9          0.1128    3.4388   -3.4370 C.3       1 <0>         0.0000
     10 C10        -0.1648    4.3761   -1.1165 C.3       1 <0>         0.0000
     11 C11         1.5761    0.1765   -1.0474 C.3       1 <0>         0.0000
     12 C12         0.4360    0.4372   -2.0380 C.3       1 <0>         0.0000
     13 C13         2.3649   -0.5352    1.2935 C.3       1 <0>         0.0000
     14 C14         1.1534   -0.2750    0.3710 C.3       1 <0>         0.0000
     15 C15         0.2674    3.1720   -1.9445 C.3       1 <0>         0.0000
     16 N1          0.3597   -1.5080    0.3138 N.3       1 <0>         0.0000
     17 N2          0.7320   -0.3536    4.6161 N.am      1 <0>         0.0000
     18 N3          1.1743   -0.0714    3.3469 N.am      1 <0>         0.0000
     19 O1         -1.2351   -1.3059    3.8493 O.2       1 <0>         0.0000
     20 O2          2.2555   -2.1109    3.1269 O.2       1 <0>         0.0000
     21 O3          3.2186   -1.5159    0.7230 O.3       1 <0>         0.0000
     22 S1         -0.7139    1.7277   -1.4786 S.3       1 <0>         0.0000
     23 Cl1        -4.2894   -1.7271    8.2355 Cl        1 <0>         0.0000
     24 H1          0.4631   -1.8757    9.2280 H         1 <0>         0.0000
     25 H2          1.1369   -1.3929    6.9013 H         1 <0>         0.0000
     26 H3         -1.9258   -2.0251    9.8297 H         1 <0>         0.0000
     27 H4         -3.0036   -1.2033    5.7395 H         1 <0>         0.0000
     28 H5         -0.9313    3.6698   -3.6761 H         1 <0>         0.0000
     29 H6          0.7168    4.2965   -3.7534 H         1 <0>         0.0000
     30 H7          0.4041    2.5712   -4.0399 H         1 <0>         0.0000
     31 H8         -1.2132    4.6215   -1.3199 H         1 <0>         0.0000
     32 H9          0.4307    5.2627   -1.3609 H         1 <0>         0.0000
     33 H10        -0.0742    4.1863   -0.0408 H         1 <0>         0.0000
     34 H11         2.1631    1.1018   -0.9736 H         1 <0>         0.0000
     35 H12         2.2520   -0.5707   -1.4824 H         1 <0>         0.0000
     36 H13        -0.1421   -0.4839   -2.1668 H         1 <0>         0.0000
     37 H14         0.8216    0.7132   -3.0237 H         1 <0>         0.0000
     38 H15         2.9484    0.3859    1.4229 H         1 <0>         0.0000
     39 H16         0.5249    0.4957    0.8291 H         1 <0>         0.0000
     40 H17         1.3162    2.9436   -1.7268 H         1 <0>         0.0000
     41 H18        -0.4842   -1.3249   -0.2178 H         1 <0>         0.0000
     42 H19         0.0690   -1.7492    1.2550 H         1 <0>         0.0000
     43 H20         1.2931   -0.1098    5.4249 H         1 <0>         0.0000
     44 H21         0.9480    0.8148    2.9078 H         1 <0>         0.0000
     45 H22         2.7041   -2.3378    0.6655 H         1 <0>         0.0000
@<TRIPOS>BOND
     1    1    2 ar
     2    1    3 ar
     3    2    5 ar
     4    3    6 ar
     5    4    5 ar
     6    4    6 ar
     7    5    7 1
     8    6   23 1
     9    7   17 am
    10    7   19 2
    11    8   13 1
    12    8   18 am
    13    8   20 2
    14    9   15 1
    15   10   15 1
    16   11   12 1
    17   11   14 1
    18   12   22 1
    19   13   14 1
    20   13   21 1
    21   14   16 1
    22   15   22 1
    23   17   18 1
    24    1   24 1
    25    2   25 1
    26    3   26 1
    27    4   27 1
    28    9   28 1
    29    9   29 1
    30    9   30 1
    31   10   31 1
    32   10   32 1
    33   10   33 1
    34   11   34 1
    35   11   35 1
    36   12   36 1
    37   12   37 1
    38   13   38 1
    39   14   39 1
    40   15   40 1
    41   16   41 1
    42   16   42 1
    43   17   43 1
    44   18   44 1
    45   21   45 1
@<TRIPOS>MOLECULE
LIGAND
   45    45     0     0     0
SMALL
NO_CHARGES

@<TRIPOS>ATOM
      1 C1          2.3494   -1.9340    9.0709 C.ar      1 <0>         0.0000
      2 C2          2.6184   -1.6158    7.7398 C.ar      1 <0>         0.0000
      3 C3          2.2507   -3.2692    9.4627 C.ar      1 <0>         0.0000
      4 C4          2.6898   -3.9679    7.1920 C.ar      1 <0>         0.0000
      5 C5          2.7886   -2.6327    6.8003 C.ar      1 <0>         0.0000
      6 C6          2.4209   -4.2860    8.5232 C.ar      1 <0>         0.0000
      7 C7          3.0744   -2.2928    5.3823 C.2       1 <0>         0.0000
      8 C8          1.9325   -1.0133    2.6768 C.2       1 <0>         0.0000
      9 C9         -4.2967    1.3927   -0.3375 C.3       1 <0>         0.0000
     10 C10        -4.0071    3.8901   -0.4781 C.3       1 <0>         0.0000
     11 C11         0.2195    0.8307    0.9188 C.3       1 <0>         0.0000
     12 C12        -1.0001    1.1700    0.0549 C.3       1 <0>         0.0000
     13 C13         2.3649   -0.5352    1.2935 C.3       1 <0>         0.0000
     14 C14         1.1534   -0.2750    0.3710 C.3       1 <0>         0.0000
     15 C15        -3.3066    2.5373   -0.5169 C.3       1 <0>         0.0000
     16 N1          1.6681    0.0834   -0.9557 N.3       1 <0>         0.0000
     17 N2          2.6023   -1.0670    4.9540 N.am      1 <0>         0.0000
     18 N3          2.8469   -0.6810    3.6590 N.am      1 <0>         0.0000
     19 O1          3.7083   -3.0847    4.6892 O.2       1 <0>         0.0000
     20 O2          0.8915   -1.6405    2.8632 O.2       1 <0>         0.0000
     21 O3          3.2186   -1.5159    0.7230 O.3       1 <0>         0.0000
     22 S1         -2.0492    2.4644    0.7791 S.3       1 <0>         0.0000
     23 Cl1         2.2994   -5.9333    9.0073 Cl        1 <0>         0.0000
     24 H1          2.2173   -1.1422    9.8023 H         1 <0>         0.0000
     25 H2          2.6929   -0.5718    7.4466 H         1 <0>         0.0000
     26 H3          2.0407   -3.5019   10.5034 H         1 <0>         0.0000
     27 H4          2.8236   -4.7591    6.4570 H         1 <0>         0.0000
     28 H5         -4.8186    1.4878    0.6213 H         1 <0>         0.0000
     29 H6         -5.0586    1.3975   -1.1249 H         1 <0>         0.0000
     30 H7         -3.7990    0.4164   -0.3457 H         1 <0>         0.0000
     31 H8         -4.5245    4.0235    0.4785 H         1 <0>         0.0000
     32 H9         -4.7599    3.9723   -1.2700 H         1 <0>         0.0000
     33 H10        -3.2998    4.7201   -0.5881 H         1 <0>         0.0000
     34 H11        -0.1531    0.5335    1.9082 H         1 <0>         0.0000
     35 H12         0.7975    1.7493    1.0822 H         1 <0>         0.0000
     36 H13        -1.6176    0.2727   -0.0585 H         1 <0>         0.0000
     37 H14        -0.7009    1.4813   -0.9501 H         1 <0>         0.0000
     38 H15         2.9484    0.3859    1.4229 H         1 <0>         0.0000
     39 H16         0.5915   -1.2082    0.2610 H         1 <0>         0.0000
     40 H17        -2.7965    2.4239   -1.4795 H         1 <0>         0.0000
     41 H18         0.8845    0.1717   -1.5934 H         1 <0>         0.0000
     42 H19         2.2416   -0.6802   -1.2969 H         1 <0>         0.0000
     43 H20         2.0849   -0.4638    5.5841 H         1 <0>         0.0000
     44 H21         3.6858   -0.1599    3.4266 H         1 <0>         0.0000
     45 H22         2.7041   -2.3378    0.6655 H         1 <0>         0.0000
@<TRIPOS>BOND
     1    1    2 ar
     2    1    3 ar
     3    2    5 ar
     4    3    6 ar
     5    4    5 ar
     6    4    6 ar
     7    5    7 1
     8    6   23 1
     9    7   17 am
    10    7   19 2
    11    8   13 1
    12    8   18 am
    13    8   20 2
    14    9   15 1
    15   10   15 1
    16   11   12 1
    17   11   14 1
    18   12   22 1
    19   13   14 1
    20   13   21 1
    21   14   16 1
    22   15   22 1
    23   17   18 1
    24    1   24 1
    25    2   25 1
    26    3   26 1
    27    4   27 1
    28    9   28 1
    29    9   29 1
    30    9   30 1
    31   10   31 1
    32   10   32 1
    33   10   33 1
    34   11   34 1
    35   11   35 1
    36   12   36 1
    37   12   37 1
    38   13   38 1
    39   14   39 1
    40   15   40 1
    41   16   41 1
    42   16   42 1
    43   17   43 1
    44   18   44 1
    45   21   45 1
@<TRIPOS>MOLECULE
LIGAND
   45    45     0     0     0
SMALL
NO_CHARGES

@<TRIPOS>ATOM
      1 C1          2.3084   -2.0825    9.0344 C.ar      1 <0>         0.0000
      2 C2          2.5351   -1.6185    7.7387 C.ar      1 <0>         0.0000
      3 C3          1.1971   -1.6371    9.7503 C.ar      1 <0>         0.0000
      4 C4          0.5395   -0.2636    7.8747 C.ar      1 <0>         0.0000
      5 C5          1.6507   -0.7090    7.1588 C.ar      1 <0>         0.0000
      6 C6          0.3127   -0.7276    9.1704 C.ar      1 <0>         0.0000
      7 C7          1.8934   -0.2148    5.7787 C.2       1 <0>         0.0000
      8 C8          1.9325   -1.0133    2.6768 C.2       1 <0>         0.0000
      9 C9         -4.5752    3.1779    0.0331 C.3       1 <0>         0.0000
     10 C10        -2.7668    3.3107   -1.7140 C.3       1 <0>         0.0000
     11 C11         0.2195    0.8307    0.9188 C.3       1 <0>         0.0000
     12 C12        -1.0001    1.1700    0.0549 C.3       1 <0>         0.0000
     13 C13         2.3649   -0.5352    1.2935 C.3       1 <0>         0.0000
     14 C14         1.1534   -0.2750    0.3710 C.3       1 <0>         0.0000
     15 C15        -3.3066    2.5373   -0.5169 C.3       1 <0>         0.0000
     16 N1          1.6681    0.0834   -0.9557 N.3       1 <0>         0.0000
     17 N2          2.6023   -1.0670    4.9540 N.am      1 <0>         0.0000
     18 N3          2.8469   -0.6810    3.6590 N.am      1 <0>         0.0000
     19 O1          1.4534    0.8829    5.4461 O.2       1 <0>         0.0000
     20 O2          0.8915   -1.6405    2.8632 O.2       1 <0>         0.0000
     21 O3          3.2186   -1.5159    0.7230 O.3       1 <0>         0.0000
     22 S1         -2.0492    2.4644    0.7791 S.3       1 <0>         0.0000
     23 Cl1        -1.0586   -0.1788   10.0541 Cl        1 <0>         0.0000
     24 H1          2.9969   -2.7909    9.4856 H         1 <0>         0.0000
     25 H2          3.4046   -1.9729    7.1910 H         1 <0>         0.0000
     26 H3          1.0333   -2.0074   10.7590 H         1 <0>         0.0000
     27 H4         -0.1491    0.4455    7.4196 H         1 <0>         0.0000
     28 H5         -4.3764    4.2092    0.3452 H         1 <0>         0.0000
     29 H6         -5.3650    3.2137   -0.7256 H         1 <0>         0.0000
     30 H7         -4.9604    2.6385    0.9059 H         1 <0>         0.0000
     31 H8         -2.5401    4.3441   -1.4288 H         1 <0>         0.0000
     32 H9         -3.5004    3.3505   -2.5268 H         1 <0>         0.0000
     33 H10        -1.8438    2.8672   -2.1048 H         1 <0>         0.0000
     34 H11        -0.1531    0.5335    1.9082 H         1 <0>         0.0000
     35 H12         0.7975    1.7493    1.0822 H         1 <0>         0.0000
     36 H13        -1.6176    0.2727   -0.0585 H         1 <0>         0.0000
     37 H14        -0.7009    1.4813   -0.9501 H         1 <0>         0.0000
     38 H15         2.9484    0.3859    1.4229 H         1 <0>         0.0000
     39 H16         0.5915   -1.2082    0.2610 H         1 <0>         0.0000
     40 H17        -3.5264    1.5088   -0.8227 H         1 <0>         0.0000
     41 H18         0.8845    0.1717   -1.5934 H         1 <0>         0.0000
     42 H19         2.2416   -0.6802   -1.2969 H         1 <0>         0.0000
     43 H20         2.9356   -1.9607    5.2985 H         1 <0>         0.0000
     44 H21         3.6858   -0.1599    3.4266 H         1 <0>         0.0000
     45 H22         2.7041   -2.3378    0.6655 H         1 <0>         0.0000
@<TRIPOS>BOND
     1    1    2 ar
     2    1    3 ar
     3    2    5 ar
     4    3    6 ar
     5    4    5 ar
     6    4    6 ar
     7    5    7 1
     8    6   23 1
     9    7   17 am
    10    7   19 2
    11    8   13 1
    12    8   18 am
    13    8   20 2
    14    9   15 1
    15   10   15 1
    16   11   12 1
    17   11   14 1
    18   12   22 1
    19   13   14 1
    20   13   21 1
    21   14   16 1
    22   15   22 1
    23   17   18 1
    24    1   24 1
    25    2   25 1
    26    3   26 1
    27    4   27 1
    28    9   28 1
    29    9   29 1
    30    9   30 1
    31   10   31 1
    32   10   32 1
    33   10   33 1
    34   11   34 1
    35   11   35 1
    36   12   36 1
    37   12   37 1
    38   13   38 1
    39   14   39 1
    40   15   40 1
    41   16   41 1
    42   16   42 1
    43   17   43 1
    44   18   44 1
    45   21   45 1
@<TRIPOS>MOLECULE
LIGAND
   45    45     0     0     0
SMALL
NO_CHARGES

@<TRIPOS>ATOM
      1 C1          1.2491   -0.2643    9.4993 C.ar      1 <0>         0.0000
      2 C2          1.4776    0.1988    8.2036 C.ar      1 <0>         0.0000
      3 C3          1.1939   -1.6354    9.7503 C.ar      1 <0>         0.0000
      4 C4          1.5955   -2.0801    7.4098 C.ar      1 <0>         0.0000
      5 C5          1.6507   -0.7090    7.1588 C.ar      1 <0>         0.0000
      6 C6          1.3670   -2.5432    8.7056 C.ar      1 <0>         0.0000
      7 C7          1.8934   -0.2148    5.7787 C.2       1 <0>         0.0000
      8 C8          1.9325   -1.0133    2.6768 C.2       1 <0>         0.0000
      9 C9         -4.5752    3.1779    0.0331 C.3       1 <0>         0.0000
     10 C10        -2.7668    3.3107   -1.7140 C.3       1 <0>         0.0000
     11 C11         0.2195    0.8307    0.9188 C.3       1 <0>         0.0000
     12 C12        -1.0001    1.1700    0.0549 C.3       1 <0>         0.0000
     13 C13         2.3649   -0.5352    1.2935 C.3       1 <0>         0.0000
     14 C14         1.1534   -0.2750    0.3710 C.3       1 <0>         0.0000
     15 C15        -3.3066    2.5373   -0.5169 C.3       1 <0>         0.0000
     16 N1          1.6681    0.0834   -0.9557 N.3       1 <0>         0.0000
     17 N2          2.6023   -1.0670    4.9540 N.am      1 <0>         0.0000
     18 N3          2.8469   -0.6810    3.6590 N.am      1 <0>         0.0000
     19 O1          1.4534    0.8829    5.4461 O.2       1 <0>         0.0000
     20 O2          0.8915   -1.6405    2.8632 O.2       1 <0>         0.0000
     21 O3          3.2186   -1.5159    0.7230 O.3       1 <0>         0.0000
     22 S1         -2.0492    2.4644    0.7791 S.3       1 <0>         0.0000
     23 Cl1         1.2993   -4.2348    9.0161 Cl        1 <0>         0.0000
     24 H1          1.1146    0.4426   10.3126 H         1 <0>         0.0000
     25 H2          1.5183    1.2695    8.0204 H         1 <0>         0.0000
     26 H3          1.0151   -1.9815   10.7651 H         1 <0>         0.0000
     27 H4          1.7315   -2.7860    6.5930 H         1 <0>         0.0000
     28 H5         -4.3764    4.2092    0.3452 H         1 <0>         0.0000
     29 H6         -5.3650    3.2137   -0.7256 H         1 <0>         0.0000
     30 H7         -4.9604    2.6385    0.9059 H         1 <0>         0.0000
     31 H8         -2.5401    4.3441   -1.4288 H         1 <0>         0.0000
     32 H9         -3.5004    3.3505   -2.5268 H         1 <0>         0.0000
     33 H10        -1.8438    2.8672   -2.1048 H         1 <0>         0.0000
     34 H11        -0.1531    0.5335    1.9082 H         1 <0>         0.0000
     35 H12         0.7975    1.7493    1.0822 H         1 <0>         0.0000
     36 H13        -1.6176    0.2727   -0.0585 H         1 <0>         0.0000
     37 H14        -0.7009    1.4813   -0.9501 H         1 <0>         0.0000
     38 H15         2.9484    0.3859    1.4229 H         1 <0>         0.0000
     39 H16         0.5915   -1.2082    0.2610 H         1 <0>         0.0000
     40 H17        -3.5264    1.5088   -0.8227 H         1 <0>         0.0000
     41 H18         0.8845    0.1717   -1.5934 H         1 <0>         0.0000
     42 H19         2.2416   -0.6802   -1.2969 H         1 <0>         0.0000
     43 H20         2.9356   -1.9607    5.2985 H         1 <0>         0.0000
     44 H21         3.6858   -0.1599    3.4266 H         1 <0>         0.0000
     45 H22         2.7041   -2.3378    0.6655 H         1 <0>         0.0000
@<TRIPOS>BOND
     1    1    2 ar
     2    1    3 ar
     3    2    5 ar
     4    3    6 ar
     5    4    5 ar
     6    4    6 ar
     7    5    7 1
     8    6   23 1
     9    7   17 am
    10    7   19 2
    11    8   13 1
    12    8   18 am
    13    8   20 2
    14    9   15 1
    15   10   15 1
    16   11   12 1
    17   11   14 1
    18   12   22 1
    19   13   14 1
    20   13   21 1
    21   14   16 1
    22   15   22 1
    23   17   18 1
    24    1   24 1
    25    2   25 1
    26    3   26 1
    27    4   27 1
    28    9   28 1
    29    9   29 1
    30    9   30 1
    31   10   31 1
    32   10   32 1
    33   10   33 1
    34   11   34 1
    35   11   35 1
    36   12   36 1
    37   12   37 1
    38   13   38 1
    39   14   39 1
    40   15   40 1
    41   16   41 1
    42   16   42 1
    43   17   43 1
    44   18   44 1
    45   21   45 1
@<TRIPOS>MOLECULE
LIGAND
   45    45     0     0     0
SMALL
NO_CHARGES

@<TRIPOS>ATOM
      1 C1          3.3047   -0.8664    9.7081 C.ar      1 <0>         0.0000
      2 C2          3.6057   -0.4258    8.4194 C.ar      1 <0>         0.0000
      3 C3          2.1622   -1.6344    9.9335 C.ar      1 <0>         0.0000
      4 C4          1.6219   -1.5209    7.5815 C.ar      1 <0>         0.0000
      5 C5          2.7643   -0.7530    7.3561 C.ar      1 <0>         0.0000
      6 C6          1.3208   -1.9616    8.8702 C.ar      1 <0>         0.0000
      7 C7          3.0854   -0.2826    5.9837 C.2       1 <0>         0.0000
      8 C8          1.9325   -1.0133    2.6768 C.2       1 <0>         0.0000
      9 C9         -1.3566    4.2423   -1.1718 C.3       1 <0>         0.0000
     10 C10        -1.3823    5.0762    1.2040 C.3       1 <0>         0.0000
     11 C11         0.2195    0.8307    0.9188 C.3       1 <0>         0.0000
     12 C12        -1.0001    1.1700    0.0549 C.3       1 <0>         0.0000
     13 C13         2.3649   -0.5352    1.2935 C.3       1 <0>         0.0000
     14 C14         1.1534   -0.2750    0.3710 C.3       1 <0>         0.0000
     15 C15        -1.0699    3.9009    0.2855 C.3       1 <0>         0.0000
     16 N1          1.6681    0.0834   -0.9557 N.3       1 <0>         0.0000
     17 N2          2.6023   -1.0670    4.9540 N.am      1 <0>         0.0000
     18 N3          2.8469   -0.6810    3.6590 N.am      1 <0>         0.0000
     19 O1          3.7293    0.7533    5.8374 O.2       1 <0>         0.0000
     20 O2          0.8915   -1.6405    2.8632 O.2       1 <0>         0.0000
     21 O3          3.2186   -1.5159    0.7230 O.3       1 <0>         0.0000
     22 S1         -2.0492    2.4644    0.7791 S.3       1 <0>         0.0000
     23 Cl1        -0.0884   -2.9097    9.1490 Cl        1 <0>         0.0000
     24 H1          3.9601   -0.6118   10.5358 H         1 <0>         0.0000
     25 H2          4.4987    0.1721    8.2563 H         1 <0>         0.0000
     26 H3          1.9405   -1.9706   10.9431 H         1 <0>         0.0000
     27 H4          0.9676   -1.7751    6.7500 H         1 <0>         0.0000
     28 H5         -2.4105    4.5137   -1.2989 H         1 <0>         0.0000
     29 H6         -0.7576    5.0967   -1.5064 H         1 <0>         0.0000
     30 H7         -1.1520    3.3963   -1.8378 H         1 <0>         0.0000
     31 H8         -2.4367    5.3604    1.1134 H         1 <0>         0.0000
     32 H9         -0.7841    5.9563    0.9431 H         1 <0>         0.0000
     33 H10        -1.1964    4.8333    2.2564 H         1 <0>         0.0000
     34 H11        -0.1531    0.5335    1.9082 H         1 <0>         0.0000
     35 H12         0.7975    1.7493    1.0822 H         1 <0>         0.0000
     36 H13        -1.6176    0.2727   -0.0585 H         1 <0>         0.0000
     37 H14        -0.7009    1.4813   -0.9501 H         1 <0>         0.0000
     38 H15         2.9484    0.3859    1.4229 H         1 <0>         0.0000
     39 H16         0.5915   -1.2082    0.2610 H         1 <0>         0.0000
     40 H17        -0.0132    3.6330    0.3910 H         1 <0>         0.0000
     41 H18         0.8845    0.1717   -1.5934 H         1 <0>         0.0000
     42 H19         2.2416   -0.6802   -1.2969 H         1 <0>         0.0000
     43 H20         2.0769   -1.9119    5.1509 H         1 <0>         0.0000
     44 H21         3.6858   -0.1599    3.4266 H         1 <0>         0.0000
     45 H22         2.7041   -2.3378    0.6655 H         1 <0>         0.0000
@<TRIPOS>BOND
     1    1    2 ar
     2    1    3 ar
     3    2    5 ar
     4    3    6 ar
     5    4    5 ar
     6    4    6 ar
     7    5    7 1
     8    6   23 1
     9    7   17 am
    10    7   19 2
    11    8   13 1
    12    8   18 am
    13    8   20 2
    14    9   15 1
    15   10   15 1
    16   11   12 1
    17   11   14 1
    18   12   22 1
    19   13   14 1
    20   13   21 1
    21   14   16 1
    22   15   22 1
    23   17   18 1
    24    1   24 1
    25    2   25 1
    26    3   26 1
    27    4   27 1
    28    9   28 1
    29    9   29 1
    30    9   30 1
    31   10   31 1
    32   10   32 1
    33   10   33 1
    34   11   34 1
    35   11   35 1
    36   12   36 1
    37   12   37 1
    38   13   38 1
    39   14   39 1
    40   15   40 1
    41   16   41 1
    42   16   42 1
    43   17   43 1
    44   18   44 1
    45   21   45 1
@<TRIPOS>MOLECULE
LIGAND
   45    45     0     0     0
SMALL
NO_CHARGES

@<TRIPOS>ATOM
      1 C1         -0.2040   -0.8100    8.7149 C.ar      1 <0>         0.0000
      2 C2          0.2189   -0.4746    7.4288 C.ar      1 <0>         0.0000
      3 C3          0.5641   -0.4423    9.8197 C.ar      1 <0>         0.0000
      4 C4          2.1781    0.5960    8.3521 C.ar      1 <0>         0.0000
      5 C5          1.4099    0.2284    7.2473 C.ar      1 <0>         0.0000
      6 C6          1.7552    0.2607    9.6383 C.ar      1 <0>         0.0000
      7 C7          1.8600    0.5847    5.8768 C.2       1 <0>         0.0000
      8 C8          1.9325   -1.0133    2.6768 C.2       1 <0>         0.0000
      9 C9         -4.7601    2.7149    0.5929 C.3       1 <0>         0.0000
     10 C10        -3.4472    2.6704   -1.5553 C.3       1 <0>         0.0000
     11 C11         0.2195    0.8307    0.9188 C.3       1 <0>         0.0000
     12 C12        -1.0001    1.1700    0.0549 C.3       1 <0>         0.0000
     13 C13         2.3649   -0.5352    1.2935 C.3       1 <0>         0.0000
     14 C14         1.1534   -0.2750    0.3710 C.3       1 <0>         0.0000
     15 C15        -3.5656    2.1167   -0.1405 C.3       1 <0>         0.0000
     16 N1          1.6681    0.0834   -0.9557 N.3       1 <0>         0.0000
     17 N2          1.4238   -0.2520    4.8674 N.am      1 <0>         0.0000
     18 N3          1.7877    0.0290    3.5734 N.am      1 <0>         0.0000
     19 O1          2.5607    1.5803    5.7128 O.2       1 <0>         0.0000
     20 O2          1.7602   -2.2018    2.9407 O.2       1 <0>         0.0000
     21 O3          3.2186   -1.5159    0.7230 O.3       1 <0>         0.0000
     22 S1         -2.0492    2.4644    0.7791 S.3       1 <0>         0.0000
     23 Cl1         2.7022    0.7144   11.0020 Cl        1 <0>         0.0000
     24 H1         -1.1315   -1.3570    8.8560 H         1 <0>         0.0000
     25 H2         -0.3881   -0.7667    6.5757 H         1 <0>         0.0000
     26 H3          0.2219   -0.7106   10.8159 H         1 <0>         0.0000
     27 H4          3.1065    1.1449    8.2076 H         1 <0>         0.0000
     28 H5         -4.6637    3.8047    0.6519 H         1 <0>         0.0000
     29 H6         -5.6983    2.4987    0.0696 H         1 <0>         0.0000
     30 H7         -4.8423    2.3359    1.6179 H         1 <0>         0.0000
     31 H8         -3.3306    3.7597   -1.5293 H         1 <0>         0.0000
     32 H9         -4.3446    2.4528   -2.1452 H         1 <0>         0.0000
     33 H10        -2.5797    2.2592   -2.0841 H         1 <0>         0.0000
     34 H11        -0.1531    0.5335    1.9082 H         1 <0>         0.0000
     35 H12         0.7975    1.7493    1.0822 H         1 <0>         0.0000
     36 H13        -1.6176    0.2727   -0.0585 H         1 <0>         0.0000
     37 H14        -0.7009    1.4813   -0.9501 H         1 <0>         0.0000
     38 H15         2.9484    0.3859    1.4229 H         1 <0>         0.0000
     39 H16         0.5915   -1.2082    0.2610 H         1 <0>         0.0000
     40 H17        -3.6811    1.0287   -0.1886 H         1 <0>         0.0000
     41 H18         0.8845    0.1717   -1.5934 H         1 <0>         0.0000
     42 H19         2.2416   -0.6802   -1.2969 H         1 <0>         0.0000
     43 H20         0.8460   -1.0583    5.0782 H         1 <0>         0.0000
     44 H21         1.9478    0.9869    3.2798 H         1 <0>         0.0000
     45 H22         2.7041   -2.3378    0.6655 H         1 <0>         0.0000
@<TRIPOS>BOND
     1    1    2 ar
     2    1    3 ar
     3    2    5 ar
     4    3    6 ar
     5    4    5 ar
     6    4    6 ar
     7    5    7 1
     8    6   23 1
     9    7   17 am
    10    7   19 2
    11    8   13 1
    12    8   18 am
    13    8   20 2
    14    9   15 1
    15   10   15 1
    16   11   12 1
    17   11   14 1
    18   12   22 1
    19   13   14 1
    20   13   21 1
    21   14   16 1
    22   15   22 1
    23   17   18 1
    24    1   24 1
    25    2   25 1
    26    3   26 1
    27    4   27 1
    28    9   28 1
    29    9   29 1
    30    9   30 1
    31   10   31 1
    32   10   32 1
    33   10   33 1
    34   11   34 1
    35   11   35 1
    36   12   36 1
    37   12   37 1
    38   13   38 1
    39   14   39 1
    40   15   40 1
    41   16   41 1
    42   16   42 1
    43   17   43 1
    44   18   44 1
    45   21   45 1
@<TRIPOS>MOLECULE
LIGAND
   45    45     0     0     0
SMALL
NO_CHARGES

@<TRIPOS>ATOM
      1 C1          2.6912   -3.0589    9.0302 C.ar      1 <0>         0.0000
      2 C2          3.0390   -2.7910    7.7063 C.ar      1 <0>         0.0000
      3 C3          1.9142   -2.1475    9.7453 C.ar      1 <0>         0.0000
      4 C4          1.8330   -0.7002    7.8125 C.ar      1 <0>         0.0000
      5 C5          2.6100   -1.6117    7.0974 C.ar      1 <0>         0.0000
      6 C6          1.4852   -0.9681    9.1364 C.ar      1 <0>         0.0000
      7 C7          2.9815   -1.3268    5.6872 C.2       1 <0>         0.0000
      8 C8          1.9325   -1.0133    2.6768 C.2       1 <0>         0.0000
      9 C9          0.0309    6.1524    1.8816 C.3       1 <0>         0.0000
     10 C10         1.7102    4.7140    3.0862 C.3       1 <0>         0.0000
     11 C11         0.2195    0.8307    0.9188 C.3       1 <0>         0.0000
     12 C12         0.8590    2.2074    1.1305 C.3       1 <0>         0.0000
     13 C13         2.3649   -0.5352    1.2935 C.3       1 <0>         0.0000
     14 C14         1.1534   -0.2750    0.3710 C.3       1 <0>         0.0000
     15 C15         0.8241    4.8515    1.8540 C.3       1 <0>         0.0000
     16 N1          1.6681    0.0834   -0.9557 N.3       1 <0>         0.0000
     17 N2          2.1084   -0.5131    4.9911 N.am      1 <0>         0.0000
     18 N3          2.3999   -0.1941    3.6876 N.am      1 <0>         0.0000
     19 O1          4.0191   -1.8000    5.2304 O.2       1 <0>         0.0000
     20 O2          1.2610   -2.0296    2.8442 O.2       1 <0>         0.0000
     21 O3          3.2186   -1.5159    0.7230 O.3       1 <0>         0.0000
     22 S1         -0.3102    3.4478    1.7590 S.3       1 <0>         0.0000
     23 Cl1         0.5261    0.1558   10.0192 Cl        1 <0>         0.0000
     24 H1          3.0251   -3.9773    9.5040 H         1 <0>         0.0000
     25 H2          3.6450   -3.5089    7.1594 H         1 <0>         0.0000
     26 H3          1.6510   -2.3697   10.7762 H         1 <0>         0.0000
     27 H4          1.4993    0.2187    7.3347 H         1 <0>         0.0000
     28 H5         -0.6040    6.1923    2.7738 H         1 <0>         0.0000
     29 H6          0.6947    7.0236    1.9150 H         1 <0>         0.0000
     30 H7         -0.6232    6.2512    1.0077 H         1 <0>         0.0000
     31 H8          1.1011    4.7317    3.9969 H         1 <0>         0.0000
     32 H9          2.4261    5.5404    3.1569 H         1 <0>         0.0000
     33 H10         2.2708    3.7722    3.0836 H         1 <0>         0.0000
     34 H11        -0.6259    0.9652    0.2307 H         1 <0>         0.0000
     35 H12        -0.2197    0.5004    1.8688 H         1 <0>         0.0000
     36 H13         1.2423    2.5738    0.1722 H         1 <0>         0.0000
     37 H14         1.7108    2.1489    1.8142 H         1 <0>         0.0000
     38 H15         2.9484    0.3859    1.4229 H         1 <0>         0.0000
     39 H16         0.5915   -1.2082    0.2610 H         1 <0>         0.0000
     40 H17         1.4510    4.8315    0.9561 H         1 <0>         0.0000
     41 H18         0.8845    0.1717   -1.5934 H         1 <0>         0.0000
     42 H19         2.2416   -0.6802   -1.2969 H         1 <0>         0.0000
     43 H20         1.2682   -0.1582    5.4344 H         1 <0>         0.0000
     44 H21         2.9499    0.6302    3.4697 H         1 <0>         0.0000
     45 H22         2.7041   -2.3378    0.6655 H         1 <0>         0.0000
@<TRIPOS>BOND
     1    1    2 ar
     2    1    3 ar
     3    2    5 ar
     4    3    6 ar
     5    4    5 ar
     6    4    6 ar
     7    5    7 1
     8    6   23 1
     9    7   17 am
    10    7   19 2
    11    8   13 1
    12    8   18 am
    13    8   20 2
    14    9   15 1
    15   10   15 1
    16   11   12 1
    17   11   14 1
    18   12   22 1
    19   13   14 1
    20   13   21 1
    21   14   16 1
    22   15   22 1
    23   17   18 1
    24    1   24 1
    25    2   25 1
    26    3   26 1
    27    4   27 1
    28    9   28 1
    29    9   29 1
    30    9   30 1
    31   10   31 1
    32   10   32 1
    33   10   33 1
    34   11   34 1
    35   11   35 1
    36   12   36 1
    37   12   37 1
    38   13   38 1
    39   14   39 1
    40   15   40 1
    41   16   41 1
    42   16   42 1
    43   17   43 1
    44   18   44 1
    45   21   45 1
@<TRIPOS>MOLECULE
LIGAND
   45    45     0     0     0
SMALL
NO_CHARGES

@<TRIPOS>ATOM
      1 C1         -0.5153   -4.0016    7.6155 C.ar      1 <0>         0.0000
      2 C2         -0.0816   -3.4032    6.4326 C.ar      1 <0>         0.0000
      3 C3         -1.8803   -4.1197    7.8777 C.ar      1 <0>         0.0000
      4 C4         -2.3777   -3.0408    5.7741 C.ar      1 <0>         0.0000
      5 C5         -1.0128   -2.9227    5.5119 C.ar      1 <0>         0.0000
      6 C6         -2.8114   -3.6393    6.9570 C.ar      1 <0>         0.0000
      7 C7         -0.5498   -2.2848    4.2523 C.2       1 <0>         0.0000
      8 C8          1.9325   -1.0133    2.6768 C.2       1 <0>         0.0000
      9 C9         -4.1299   -0.4675   -2.0276 C.3       1 <0>         0.0000
     10 C10        -4.2566    1.4118   -0.3565 C.3       1 <0>         0.0000
     11 C11         0.2195    0.8307    0.9188 C.3       1 <0>         0.0000
     12 C12        -1.0001    1.1700    0.0549 C.3       1 <0>         0.0000
     13 C13         2.3649   -0.5352    1.2935 C.3       1 <0>         0.0000
     14 C14         1.1534   -0.2750    0.3710 C.3       1 <0>         0.0000
     15 C15        -3.3416    0.5718   -1.2395 C.3       1 <0>         0.0000
     16 N1          1.6681    0.0834   -0.9557 N.3       1 <0>         0.0000
     17 N2          0.6851   -2.6985    3.7909 N.am      1 <0>         0.0000
     18 N3          1.1665   -2.1628    2.6216 N.am      1 <0>         0.0000
     19 O1         -1.2703   -1.4609    3.6944 O.2       1 <0>         0.0000
     20 O2          2.2299   -0.4108    3.7066 O.2       1 <0>         0.0000
     21 O3          3.2186   -1.5159    0.7230 O.3       1 <0>         0.0000
     22 S1         -2.0977   -0.2515   -0.2193 S.3       1 <0>         0.0000
     23 Cl1        -4.4955   -3.7857    7.2810 Cl        1 <0>         0.0000
     24 H1          0.2098   -4.3759    8.3321 H         1 <0>         0.0000
     25 H2          0.9846   -3.3169    6.2396 H         1 <0>         0.0000
     26 H3         -2.2034   -4.5883    8.8037 H         1 <0>         0.0000
     27 H4         -3.1019   -2.6655    5.0538 H         1 <0>         0.0000
     28 H5         -4.6663   -1.1363   -1.3453 H         1 <0>         0.0000
     29 H6         -4.8772    0.0053   -2.6747 H         1 <0>         0.0000
     30 H7         -3.4774   -1.0886   -2.6519 H         1 <0>         0.0000
     31 H8         -4.7949    0.7719    0.3515 H         1 <0>         0.0000
     32 H9         -5.0077    1.9429   -0.9517 H         1 <0>         0.0000
     33 H10        -3.6957    2.1500    0.2280 H         1 <0>         0.0000
     34 H11        -0.1531    0.5335    1.9082 H         1 <0>         0.0000
     35 H12         0.7975    1.7493    1.0822 H         1 <0>         0.0000
     36 H13        -0.6573    1.5138   -0.9268 H         1 <0>         0.0000
     37 H14        -1.5832    1.9849    0.4933 H         1 <0>         0.0000
     38 H15         2.9484    0.3859    1.4229 H         1 <0>         0.0000
     39 H16         0.5915   -1.2082    0.2610 H         1 <0>         0.0000
     40 H17        -2.8138    1.2291   -1.9386 H         1 <0>         0.0000
     41 H18         0.8845    0.1717   -1.5934 H         1 <0>         0.0000
     42 H19         2.2416   -0.6802   -1.2969 H         1 <0>         0.0000
     43 H20         1.2257   -3.3847    4.3060 H         1 <0>         0.0000
     44 H21         0.9630   -2.6038    1.7309 H         1 <0>         0.0000
     45 H22         2.7041   -2.3378    0.6655 H         1 <0>         0.0000
@<TRIPOS>BOND
     1    1    2 ar
     2    1    3 ar
     3    2    5 ar
     4    3    6 ar
     5    4    5 ar
     6    4    6 ar
     7    5    7 1
     8    6   23 1
     9    7   17 am
    10    7   19 2
    11    8   13 1
    12    8   18 am
    13    8   20 2
    14    9   15 1
    15   10   15 1
    16   11   12 1
    17   11   14 1
    18   12   22 1
    19   13   14 1
    20   13   21 1
    21   14   16 1
    22   15   22 1
    23   17   18 1
    24    1   24 1
    25    2   25 1
    26    3   26 1
    27    4   27 1
    28    9   28 1
    29    9   29 1
    30    9   30 1
    31   10   31 1
    32   10   32 1
    33   10   33 1
    34   11   34 1
    35   11   35 1
    36   12   36 1
    37   12   37 1
    38   13   38 1
    39   14   39 1
    40   15   40 1
    41   16   41 1
    42   16   42 1
    43   17   43 1
    44   18   44 1
    45   21   45 1
@<TRIPOS>MOLECULE
LIGAND
   45    45     0     0     0
SMALL
NO_CHARGES

@<TRIPOS>ATOM
      1 C1         -2.6241   -1.6244    7.8186 C.ar      1 <0>         0.0000
      2 C2         -2.2458   -1.3508    6.5042 C.ar      1 <0>         0.0000
      3 C3         -1.6506   -1.8141    8.7994 C.ar      1 <0>         0.0000
      4 C4          0.0795   -1.4566    7.1515 C.ar      1 <0>         0.0000
      5 C5         -0.8940   -1.2668    6.1707 C.ar      1 <0>         0.0000
      6 C6         -0.2989   -1.7302    8.4659 C.ar      1 <0>         0.0000
      7 C7         -0.4919   -0.9759    4.7701 C.2       1 <0>         0.0000
      8 C8          1.9325   -1.0133    2.6768 C.2       1 <0>         0.0000
      9 C9         -2.8125    0.5348   -2.7511 C.3       1 <0>         0.0000
     10 C10        -2.5812    3.0315   -2.9817 C.3       1 <0>         0.0000
     11 C11         1.5761    0.1765   -1.0474 C.3       1 <0>         0.0000
     12 C12         0.4360    0.4372   -2.0380 C.3       1 <0>         0.0000
     13 C13         2.3649   -0.5352    1.2935 C.3       1 <0>         0.0000
     14 C14         1.1534   -0.2750    0.3710 C.3       1 <0>         0.0000
     15 C15        -1.8423    1.7019   -2.8899 C.3       1 <0>         0.0000
     16 N1          0.3597   -1.5080    0.3138 N.3       1 <0>         0.0000
     17 N2          0.7320   -0.3536    4.6161 N.am      1 <0>         0.0000
     18 N3          1.1743   -0.0714    3.3469 N.am      1 <0>         0.0000
     19 O1         -1.2351   -1.3059    3.8493 O.2       1 <0>         0.0000
     20 O2          2.2555   -2.1109    3.1269 O.2       1 <0>         0.0000
     21 O3          3.2186   -1.5159    0.7230 O.3       1 <0>         0.0000
     22 S1         -0.7139    1.7277   -1.4786 S.3       1 <0>         0.0000
     23 Cl1         0.9018   -1.9639    9.6768 Cl        1 <0>         0.0000
     24 H1         -3.6766   -1.6894    8.0781 H         1 <0>         0.0000
     25 H2         -3.0136   -1.2050    5.7487 H         1 <0>         0.0000
     26 H3         -1.9605   -2.0267    9.8194 H         1 <0>         0.0000
     27 H4          1.1333   -1.3900    6.8885 H         1 <0>         0.0000
     28 H5         -3.4266    0.6553   -1.8516 H         1 <0>         0.0000
     29 H6         -3.4950    0.4797   -3.6065 H         1 <0>         0.0000
     30 H7         -2.2889   -0.4243   -2.6659 H         1 <0>         0.0000
     31 H8         -3.1918    3.1904   -2.0858 H         1 <0>         0.0000
     32 H9         -3.2564    3.0539   -3.8443 H         1 <0>         0.0000
     33 H10        -1.8903    3.8784   -3.0633 H         1 <0>         0.0000
     34 H11         2.1631    1.1018   -0.9736 H         1 <0>         0.0000
     35 H12         2.2520   -0.5707   -1.4824 H         1 <0>         0.0000
     36 H13        -0.1421   -0.4839   -2.1668 H         1 <0>         0.0000
     37 H14         0.8216    0.7132   -3.0237 H         1 <0>         0.0000
     38 H15         2.9484    0.3859    1.4229 H         1 <0>         0.0000
     39 H16         0.5249    0.4957    0.8291 H         1 <0>         0.0000
     40 H17        -1.2390    1.5625   -3.7933 H         1 <0>         0.0000
     41 H18        -0.4842   -1.3249   -0.2178 H         1 <0>         0.0000
     42 H19         0.0690   -1.7492    1.2550 H         1 <0>         0.0000
     43 H20         1.2931   -0.1098    5.4249 H         1 <0>         0.0000
     44 H21         0.9480    0.8148    2.9078 H         1 <0>         0.0000
     45 H22         2.7041   -2.3378    0.6655 H         1 <0>         0.0000
@<TRIPOS>BOND
     1    1    2 ar
     2    1    3 ar
     3    2    5 ar
     4    3    6 ar
     5    4    5 ar
     6    4    6 ar
     7    5    7 1
     8    6   23 1
     9    7   17 am
    10    7   19 2
    11    8   13 1
    12    8   18 am
    13    8   20 2
    14    9   15 1
    15   10   15 1
    16   11   12 1
    17   11   14 1
    18   12   22 1
    19   13   14 1
    20   13   21 1
    21   14   16 1
    22   15   22 1
    23   17   18 1
    24    1   24 1
    25    2   25 1
    26    3   26 1
    27    4   27 1
    28    9   28 1
    29    9   29 1
    30    9   30 1
    31   10   31 1
    32   10   32 1
    33   10   33 1
    34   11   34 1
    35   11   35 1
    36   12   36 1
    37   12   37 1
    38   13   38 1
    39   14   39 1
    40   15   40 1
    41   16   41 1
    42   16   42 1
    43   17   43 1
    44   18   44 1
    45   21   45 1
@<TRIPOS>MOLECULE
LIGAND
   45    45     0     0     0
SMALL
NO_CHARGES

@<TRIPOS>ATOM
      1 C1         -0.7874   -0.7484    8.5279 C.ar      1 <0>         0.0000
      2 C2         -0.4100   -0.4763    7.2130 C.ar      1 <0>         0.0000
      3 C3         -1.6489   -1.8111    8.8006 C.ar      1 <0>         0.0000
      4 C4         -1.7555   -2.3295    6.4433 C.ar      1 <0>         0.0000
      5 C5         -0.8940   -1.2668    6.1707 C.ar      1 <0>         0.0000
      6 C6         -2.1330   -2.6016    7.7583 C.ar      1 <0>         0.0000
      7 C7         -0.4919   -0.9759    4.7701 C.2       1 <0>         0.0000
      8 C8          1.9325   -1.0133    2.6768 C.2       1 <0>         0.0000
      9 C9         -2.8125    0.5348   -2.7511 C.3       1 <0>         0.0000
     10 C10        -2.5812    3.0315   -2.9817 C.3       1 <0>         0.0000
     11 C11         1.5761    0.1765   -1.0474 C.3       1 <0>         0.0000
     12 C12         0.4360    0.4372   -2.0380 C.3       1 <0>         0.0000
     13 C13         2.3649   -0.5352    1.2935 C.3       1 <0>         0.0000
     14 C14         1.1534   -0.2750    0.3710 C.3       1 <0>         0.0000
     15 C15        -1.8423    1.7019   -2.8899 C.3       1 <0>         0.0000
     16 N1          0.3597   -1.5080    0.3138 N.3       1 <0>         0.0000
     17 N2          0.7320   -0.3536    4.6161 N.am      1 <0>         0.0000
     18 N3          1.1743   -0.0714    3.3469 N.am      1 <0>         0.0000
     19 O1         -1.2351   -1.3059    3.8493 O.2       1 <0>         0.0000
     20 O2          2.2555   -2.1109    3.1269 O.2       1 <0>         0.0000
     21 O3          3.2186   -1.5159    0.7230 O.3       1 <0>         0.0000
     22 S1         -0.7139    1.7277   -1.4786 S.3       1 <0>         0.0000
     23 Cl1        -3.1956   -3.9130    8.0955 Cl        1 <0>         0.0000
     24 H1         -0.4102   -0.1330    9.3393 H         1 <0>         0.0000
     25 H2          0.2618    0.3545    7.0131 H         1 <0>         0.0000
     26 H3         -1.9343   -2.0111    9.8301 H         1 <0>         0.0000
     27 H4         -2.1312   -2.9448    5.6282 H         1 <0>         0.0000
     28 H5         -3.4266    0.6553   -1.8516 H         1 <0>         0.0000
     29 H6         -3.4950    0.4797   -3.6065 H         1 <0>         0.0000
     30 H7         -2.2889   -0.4243   -2.6659 H         1 <0>         0.0000
     31 H8         -3.1918    3.1904   -2.0858 H         1 <0>         0.0000
     32 H9         -3.2564    3.0539   -3.8443 H         1 <0>         0.0000
     33 H10        -1.8903    3.8784   -3.0633 H         1 <0>         0.0000
     34 H11         2.1631    1.1018   -0.9736 H         1 <0>         0.0000
     35 H12         2.2520   -0.5707   -1.4824 H         1 <0>         0.0000
     36 H13        -0.1421   -0.4839   -2.1668 H         1 <0>         0.0000
     37 H14         0.8216    0.7132   -3.0237 H         1 <0>         0.0000
     38 H15         2.9484    0.3859    1.4229 H         1 <0>         0.0000
     39 H16         0.5249    0.4957    0.8291 H         1 <0>         0.0000
     40 H17        -1.2390    1.5625   -3.7933 H         1 <0>         0.0000
     41 H18        -0.4842   -1.3249   -0.2178 H         1 <0>         0.0000
     42 H19         0.0690   -1.7492    1.2550 H         1 <0>         0.0000
     43 H20         1.2931   -0.1098    5.4249 H         1 <0>         0.0000
     44 H21         0.9480    0.8148    2.9078 H         1 <0>         0.0000
     45 H22         2.7041   -2.3378    0.6655 H         1 <0>         0.0000
@<TRIPOS>BOND
     1    1    2 ar
     2    1    3 ar
     3    2    5 ar
     4    3    6 ar
     5    4    5 ar
     6    4    6 ar
     7    5    7 1
     8    6   23 1
     9    7   17 am
    10    7   19 2
    11    8   13 1
    12    8   18 am
    13    8   20 2
    14    9   15 1
    15   10   15 1
    16   11   12 1
    17   11   14 1
    18   12   22 1
    19   13   14 1
    20   13   21 1
    21   14   16 1
    22   15   22 1
    23   17   18 1
    24    1   24 1
    25    2   25 1
    26    3   26 1
    27    4   27 1
    28    9   28 1
    29    9   29 1
    30    9   30 1
    31   10   31 1
    32   10   32 1
    33   10   33 1
    34   11   34 1
    35   11   35 1
    36   12   36 1
    37   12   37 1
    38   13   38 1
    39   14   39 1
    40   15   40 1
    41   16   41 1
    42   16   42 1
    43   17   43 1
    44   18   44 1
    45   21   45 1
@<TRIPOS>MOLECULE
LIGAND
   45    45     0     0     0
SMALL
NO_CHARGES

@<TRIPOS>ATOM
      1 C1          3.3674   -3.8174    8.8247 C.ar      1 <0>         0.0000
      2 C2          3.6347   -3.4983    7.4934 C.ar      1 <0>         0.0000
      3 C3          2.2539   -3.2710    9.4629 C.ar      1 <0>         0.0000
      4 C4          1.6751   -2.0863    7.4384 C.ar      1 <0>         0.0000
      5 C5          2.7886   -2.6327    6.8003 C.ar      1 <0>         0.0000
      6 C6          1.4078   -2.4054    8.7697 C.ar      1 <0>         0.0000
      7 C7          3.0744   -2.2928    5.3823 C.2       1 <0>         0.0000
      8 C8          1.9325   -1.0133    2.6768 C.2       1 <0>         0.0000
      9 C9         -4.2967    1.3927   -0.3375 C.3       1 <0>         0.0000
     10 C10        -4.0071    3.8901   -0.4781 C.3       1 <0>         0.0000
     11 C11         0.2195    0.8307    0.9188 C.3       1 <0>         0.0000
     12 C12        -1.0001    1.1700    0.0549 C.3       1 <0>         0.0000
     13 C13         2.3649   -0.5352    1.2935 C.3       1 <0>         0.0000
     14 C14         1.1534   -0.2750    0.3710 C.3       1 <0>         0.0000
     15 C15        -3.3066    2.5373   -0.5169 C.3       1 <0>         0.0000
     16 N1          1.6681    0.0834   -0.9557 N.3       1 <0>         0.0000
     17 N2          2.6023   -1.0670    4.9540 N.am      1 <0>         0.0000
     18 N3          2.8469   -0.6810    3.6590 N.am      1 <0>         0.0000
     19 O1          3.7083   -3.0847    4.6892 O.2       1 <0>         0.0000
     20 O2          0.8915   -1.6405    2.8632 O.2       1 <0>         0.0000
     21 O3          3.2186   -1.5159    0.7230 O.3       1 <0>         0.0000
     22 S1         -2.0492    2.4644    0.7791 S.3       1 <0>         0.0000
     23 Cl1         0.0337   -1.7319    9.5577 Cl        1 <0>         0.0000
     24 H1          4.0262   -4.4916    9.3641 H         1 <0>         0.0000
     25 H2          4.5055   -3.9303    7.0070 H         1 <0>         0.0000
     26 H3          2.0583   -3.5288   10.5005 H         1 <0>         0.0000
     27 H4          1.0164   -1.4117    6.8951 H         1 <0>         0.0000
     28 H5         -4.8186    1.4878    0.6213 H         1 <0>         0.0000
     29 H6         -5.0586    1.3975   -1.1249 H         1 <0>         0.0000
     30 H7         -3.7990    0.4164   -0.3457 H         1 <0>         0.0000
     31 H8         -4.5245    4.0235    0.4785 H         1 <0>         0.0000
     32 H9         -4.7599    3.9723   -1.2700 H         1 <0>         0.0000
     33 H10        -3.2998    4.7201   -0.5881 H         1 <0>         0.0000
     34 H11        -0.1531    0.5335    1.9082 H         1 <0>         0.0000
     35 H12         0.7975    1.7493    1.0822 H         1 <0>         0.0000
     36 H13        -1.6176    0.2727   -0.0585 H         1 <0>         0.0000
     37 H14        -0.7009    1.4813   -0.9501 H         1 <0>         0.0000
     38 H15         2.9484    0.3859    1.4229 H         1 <0>         0.0000
     39 H16         0.5915   -1.2082    0.2610 H         1 <0>         0.0000
     40 H17        -2.7965    2.4239   -1.4795 H         1 <0>         0.0000
     41 H18         0.8845    0.1717   -1.5934 H         1 <0>         0.0000
     42 H19         2.2416   -0.6802   -1.2969 H         1 <0>         0.0000
     43 H20         2.0849   -0.4638    5.5841 H         1 <0>         0.0000
     44 H21         3.6858   -0.1599    3.4266 H         1 <0>         0.0000
     45 H22         2.7041   -2.3378    0.6655 H         1 <0>         0.0000
@<TRIPOS>BOND
     1    1    2 ar
     2    1    3 ar
     3    2    5 ar
     4    3    6 ar
     5    4    5 ar
     6    4    6 ar
     7    5    7 1
     8    6   23 1
     9    7   17 am
    10    7   19 2
    11    8   13 1
    12    8   18 am
    13    8   20 2
    14    9   15 1
    15   10   15 1
    16   11   12 1
    17   11   14 1
    18   12   22 1
    19   13   14 1
    20   13   21 1
    21   14   16 1
    22   15   22 1
    23   17   18 1
    24    1   24 1
    25    2   25 1
    26    3   26 1
    27    4   27 1
    28    9   28 1
    29    9   29 1
    30    9   30 1
    31   10   31 1
    32   10   32 1
    33   10   33 1
    34   11   34 1
    35   11   35 1
    36   12   36 1
    37   12   37 1
    38   13   38 1
    39   14   39 1
    40   15   40 1
    41   16   41 1
    42   16   42 1
    43   17   43 1
    44   18   44 1
    45   21   45 1
@<TRIPOS>MOLECULE
LIGAND
   45    45     0     0     0
SMALL
NO_CHARGES

@<TRIPOS>ATOM
      1 C1         -0.9982   -4.7984    7.0345 C.ar      1 <0>         0.0000
      2 C2         -0.5646   -4.1991    5.8520 C.ar      1 <0>         0.0000
      3 C3         -1.8801   -4.1214    7.8770 C.ar      1 <0>         0.0000
      4 C4         -1.8946   -2.2457    6.3543 C.ar      1 <0>         0.0000
      5 C5         -1.0128   -2.9227    5.5119 C.ar      1 <0>         0.0000
      6 C6         -2.3282   -2.8450    7.5369 C.ar      1 <0>         0.0000
      7 C7         -0.5498   -2.2848    4.2523 C.2       1 <0>         0.0000
      8 C8          1.9325   -1.0133    2.6768 C.2       1 <0>         0.0000
      9 C9         -4.1299   -0.4675   -2.0276 C.3       1 <0>         0.0000
     10 C10        -4.2566    1.4118   -0.3565 C.3       1 <0>         0.0000
     11 C11         0.2195    0.8307    0.9188 C.3       1 <0>         0.0000
     12 C12        -1.0001    1.1700    0.0549 C.3       1 <0>         0.0000
     13 C13         2.3649   -0.5352    1.2935 C.3       1 <0>         0.0000
     14 C14         1.1534   -0.2750    0.3710 C.3       1 <0>         0.0000
     15 C15        -3.3416    0.5718   -1.2395 C.3       1 <0>         0.0000
     16 N1          1.6681    0.0834   -0.9557 N.3       1 <0>         0.0000
     17 N2          0.6851   -2.6985    3.7909 N.am      1 <0>         0.0000
     18 N3          1.1665   -2.1628    2.6216 N.am      1 <0>         0.0000
     19 O1         -1.2703   -1.4609    3.6944 O.2       1 <0>         0.0000
     20 O2          2.2299   -0.4108    3.7066 O.2       1 <0>         0.0000
     21 O3          3.2186   -1.5159    0.7230 O.3       1 <0>         0.0000
     22 S1         -2.0977   -0.2515   -0.2193 S.3       1 <0>         0.0000
     23 Cl1        -3.4168   -2.0104    8.5766 Cl        1 <0>         0.0000
     24 H1         -0.6495   -5.7923    7.2990 H         1 <0>         0.0000
     25 H2          0.1227   -4.7366    5.2037 H         1 <0>         0.0000
     26 H3         -2.2094   -4.6010    8.7951 H         1 <0>         0.0000
     27 H4         -2.2430   -1.2503    6.0862 H         1 <0>         0.0000
     28 H5         -4.6663   -1.1363   -1.3453 H         1 <0>         0.0000
     29 H6         -4.8772    0.0053   -2.6747 H         1 <0>         0.0000
     30 H7         -3.4774   -1.0886   -2.6519 H         1 <0>         0.0000
     31 H8         -4.7949    0.7719    0.3515 H         1 <0>         0.0000
     32 H9         -5.0077    1.9429   -0.9517 H         1 <0>         0.0000
     33 H10        -3.6957    2.1500    0.2280 H         1 <0>         0.0000
     34 H11        -0.1531    0.5335    1.9082 H         1 <0>         0.0000
     35 H12         0.7975    1.7493    1.0822 H         1 <0>         0.0000
     36 H13        -0.6573    1.5138   -0.9268 H         1 <0>         0.0000
     37 H14        -1.5832    1.9849    0.4933 H         1 <0>         0.0000
     38 H15         2.9484    0.3859    1.4229 H         1 <0>         0.0000
     39 H16         0.5915   -1.2082    0.2610 H         1 <0>         0.0000
     40 H17        -2.8138    1.2291   -1.9386 H         1 <0>         0.0000
     41 H18         0.8845    0.1717   -1.5934 H         1 <0>         0.0000
     42 H19         2.2416   -0.6802   -1.2969 H         1 <0>         0.0000
     43 H20         1.2257   -3.3847    4.3060 H         1 <0>         0.0000
     44 H21         0.9630   -2.6038    1.7309 H         1 <0>         0.0000
     45 H22         2.7041   -2.3378    0.6655 H         1 <0>         0.0000
@<TRIPOS>BOND
     1    1    2 ar
     2    1    3 ar
     3    2    5 ar
     4    3    6 ar
     5    4    5 ar
     6    4    6 ar
     7    5    7 1
     8    6   23 1
     9    7   17 am
    10    7   19 2
    11    8   13 1
    12    8   18 am
    13    8   20 2
    14    9   15 1
    15   10   15 1
    16   11   12 1
    17   11   14 1
    18   12   22 1
    19   13   14 1
    20   13   21 1
    21   14   16 1
    22   15   22 1
    23   17   18 1
    24    1   24 1
    25    2   25 1
    26    3   26 1
    27    4   27 1
    28    9   28 1
    29    9   29 1
    30    9   30 1
    31   10   31 1
    32   10   32 1
    33   10   33 1
    34   11   34 1
    35   11   35 1
    36   12   36 1
    37   12   37 1
    38   13   38 1
    39   14   39 1
    40   15   40 1
    41   16   41 1
    42   16   42 1
    43   17   43 1
    44   18   44 1
    45   21   45 1
@<TRIPOS>MOLECULE
LIGAND
   45    45     0     0     0
SMALL
NO_CHARGES

@<TRIPOS>ATOM
      1 C1          1.7274    0.4825    9.6814 C.ar      1 <0>         0.0000
      2 C2          2.0431    0.8764    8.3811 C.ar      1 <0>         0.0000
      3 C3          1.0216   -0.7006    9.8998 C.ar      1 <0>         0.0000
      4 C4          0.9471   -1.0959    7.5175 C.ar      1 <0>         0.0000
      5 C5          1.6530    0.0872    7.2991 C.ar      1 <0>         0.0000
      6 C6          0.6315   -1.4898    8.8178 C.ar      1 <0>         0.0000
      7 C7          1.9892    0.5079    5.9143 C.2       1 <0>         0.0000
      8 C8          1.9325   -1.0133    2.6768 C.2       1 <0>         0.0000
      9 C9          1.4564    5.4762    1.2996 C.3       1 <0>         0.0000
     10 C10         0.2261    5.4824    3.4965 C.3       1 <0>         0.0000
     11 C11         0.2195    0.8307    0.9188 C.3       1 <0>         0.0000
     12 C12         0.8590    2.2074    1.1305 C.3       1 <0>         0.0000
     13 C13         2.3649   -0.5352    1.2935 C.3       1 <0>         0.0000
     14 C14         1.1534   -0.2750    0.3710 C.3       1 <0>         0.0000
     15 C15         0.8895    4.6225    2.4275 C.3       1 <0>         0.0000
     16 N1          1.6681    0.0834   -0.9557 N.3       1 <0>         0.0000
     17 N2          2.1084   -0.5131    4.9911 N.am      1 <0>         0.0000
     18 N3          2.3999   -0.1941    3.6876 N.am      1 <0>         0.0000
     19 O1          2.1244    1.7030    5.6640 O.2       1 <0>         0.0000
     20 O2          1.2610   -2.0296    2.8442 O.2       1 <0>         0.0000
     21 O3          3.2186   -1.5159    0.7230 O.3       1 <0>         0.0000
     22 S1         -0.3102    3.4478    1.7590 S.3       1 <0>         0.0000
     23 Cl1        -0.2390   -2.9499    9.0881 Cl        1 <0>         0.0000
     24 H1          2.0316    1.0970   10.5236 H         1 <0>         0.0000
     25 H2          2.5934    1.8005    8.2236 H         1 <0>         0.0000
     26 H3          0.7827   -0.9948   10.9185 H         1 <0>         0.0000
     27 H4          0.6445   -1.7099    6.6716 H         1 <0>         0.0000
     28 H5          0.6599    6.0638    0.8297 H         1 <0>         0.0000
     29 H6          2.2059    6.1832    1.6727 H         1 <0>         0.0000
     30 H7          1.9195    4.8646    0.5169 H         1 <0>         0.0000
     31 H8         -0.5894    6.0701    3.0604 H         1 <0>         0.0000
     32 H9          0.9374    6.1894    3.9378 H         1 <0>         0.0000
     33 H10        -0.2008    4.8752    4.3030 H         1 <0>         0.0000
     34 H11        -0.6259    0.9652    0.2307 H         1 <0>         0.0000
     35 H12        -0.2197    0.5004    1.8688 H         1 <0>         0.0000
     36 H13         1.2423    2.5738    0.1722 H         1 <0>         0.0000
     37 H14         1.7108    2.1489    1.8142 H         1 <0>         0.0000
     38 H15         2.9484    0.3859    1.4229 H         1 <0>         0.0000
     39 H16         0.5915   -1.2082    0.2610 H         1 <0>         0.0000
     40 H17         1.7002    4.0441    2.8832 H         1 <0>         0.0000
     41 H18         0.8845    0.1717   -1.5934 H         1 <0>         0.0000
     42 H19         2.2416   -0.6802   -1.2969 H         1 <0>         0.0000
     43 H20         1.9830   -1.4798    5.2709 H         1 <0>         0.0000
     44 H21         2.9499    0.6302    3.4697 H         1 <0>         0.0000
     45 H22         2.7041   -2.3378    0.6655 H         1 <0>         0.0000
@<TRIPOS>BOND
     1    1    2 ar
     2    1    3 ar
     3    2    5 ar
     4    3    6 ar
     5    4    5 ar
     6    4    6 ar
     7    5    7 1
     8    6   23 1
     9    7   17 am
    10    7   19 2
    11    8   13 1
    12    8   18 am
    13    8   20 2
    14    9   15 1
    15   10   15 1
    16   11   12 1
    17   11   14 1
    18   12   22 1
    19   13   14 1
    20   13   21 1
    21   14   16 1
    22   15   22 1
    23   17   18 1
    24    1   24 1
    25    2   25 1
    26    3   26 1
    27    4   27 1
    28    9   28 1
    29    9   29 1
    30    9   30 1
    31   10   31 1
    32   10   32 1
    33   10   33 1
    34   11   34 1
    35   11   35 1
    36   12   36 1
    37   12   37 1
    38   13   38 1
    39   14   39 1
    40   15   40 1
    41   16   41 1
    42   16   42 1
    43   17   43 1
    44   18   44 1
    45   21   45 1
@<TRIPOS>MOLECULE
LIGAND
   45    45     0     0     0
SMALL
NO_CHARGES

@<TRIPOS>ATOM
      1 C1         -2.6241   -1.6244    7.8186 C.ar      1 <0>         0.0000
      2 C2         -2.2458   -1.3508    6.5042 C.ar      1 <0>         0.0000
      3 C3         -1.6506   -1.8141    8.7994 C.ar      1 <0>         0.0000
      4 C4          0.0795   -1.4566    7.1515 C.ar      1 <0>         0.0000
      5 C5         -0.8940   -1.2668    6.1707 C.ar      1 <0>         0.0000
      6 C6         -0.2989   -1.7302    8.4659 C.ar      1 <0>         0.0000
      7 C7         -0.4919   -0.9759    4.7701 C.2       1 <0>         0.0000
      8 C8          1.9325   -1.0133    2.6768 C.2       1 <0>         0.0000
      9 C9          0.1128    3.4388   -3.4370 C.3       1 <0>         0.0000
     10 C10        -0.1648    4.3761   -1.1165 C.3       1 <0>         0.0000
     11 C11         1.5761    0.1765   -1.0474 C.3       1 <0>         0.0000
     12 C12         0.4360    0.4372   -2.0380 C.3       1 <0>         0.0000
     13 C13         2.3649   -0.5352    1.2935 C.3       1 <0>         0.0000
     14 C14         1.1534   -0.2750    0.3710 C.3       1 <0>         0.0000
     15 C15         0.2674    3.1720   -1.9445 C.3       1 <0>         0.0000
     16 N1          0.3597   -1.5080    0.3138 N.3       1 <0>         0.0000
     17 N2          0.7320   -0.3536    4.6161 N.am      1 <0>         0.0000
     18 N3          1.1743   -0.0714    3.3469 N.am      1 <0>         0.0000
     19 O1         -1.2351   -1.3059    3.8493 O.2       1 <0>         0.0000
     20 O2          2.2555   -2.1109    3.1269 O.2       1 <0>         0.0000
     21 O3          3.2186   -1.5159    0.7230 O.3       1 <0>         0.0000
     22 S1         -0.7139    1.7277   -1.4786 S.3       1 <0>         0.0000
     23 Cl1         0.9018   -1.9639    9.6768 Cl        1 <0>         0.0000
     24 H1         -3.6766   -1.6894    8.0781 H         1 <0>         0.0000
     25 H2         -3.0136   -1.2050    5.7487 H         1 <0>         0.0000
     26 H3         -1.9605   -2.0267    9.8194 H         1 <0>         0.0000
     27 H4          1.1333   -1.3900    6.8885 H         1 <0>         0.0000
     28 H5         -0.9313    3.6698   -3.6761 H         1 <0>         0.0000
     29 H6          0.7168    4.2965   -3.7534 H         1 <0>         0.0000
     30 H7          0.4041    2.5712   -4.0399 H         1 <0>         0.0000
     31 H8         -1.2132    4.6215   -1.3199 H         1 <0>         0.0000
     32 H9          0.4307    5.2627   -1.3609 H         1 <0>         0.0000
     33 H10        -0.0742    4.1863   -0.0408 H         1 <0>         0.0000
     34 H11         2.1631    1.1018   -0.9736 H         1 <0>         0.0000
     35 H12         2.2520   -0.5707   -1.4824 H         1 <0>         0.0000
     36 H13        -0.1421   -0.4839   -2.1668 H         1 <0>         0.0000
     37 H14         0.8216    0.7132   -3.0237 H         1 <0>         0.0000
     38 H15         2.9484    0.3859    1.4229 H         1 <0>         0.0000
     39 H16         0.5249    0.4957    0.8291 H         1 <0>         0.0000
     40 H17         1.3162    2.9436   -1.7268 H         1 <0>         0.0000
     41 H18        -0.4842   -1.3249   -0.2178 H         1 <0>         0.0000
     42 H19         0.0690   -1.7492    1.2550 H         1 <0>         0.0000
     43 H20         1.2931   -0.1098    5.4249 H         1 <0>         0.0000
     44 H21         0.9480    0.8148    2.9078 H         1 <0>         0.0000
     45 H22         2.7041   -2.3378    0.6655 H         1 <0>         0.0000
@<TRIPOS>BOND
     1    1    2 ar
     2    1    3 ar
     3    2    5 ar
     4    3    6 ar
     5    4    5 ar
     6    4    6 ar
     7    5    7 1
     8    6   23 1
     9    7   17 am
    10    7   19 2
    11    8   13 1
    12    8   18 am
    13    8   20 2
    14    9   15 1
    15   10   15 1
    16   11   12 1
    17   11   14 1
    18   12   22 1
    19   13   14 1
    20   13   21 1
    21   14   16 1
    22   15   22 1
    23   17   18 1
    24    1   24 1
    25    2   25 1
    26    3   26 1
    27    4   27 1
    28    9   28 1
    29    9   29 1
    30    9   30 1
    31   10   31 1
    32   10   32 1
    33   10   33 1
    34   11   34 1
    35   11   35 1
    36   12   36 1
    37   12   37 1
    38   13   38 1
    39   14   39 1
    40   15   40 1
    41   16   41 1
    42   16   42 1
    43   17   43 1
    44   18   44 1
    45   21   45 1
@<TRIPOS>MOLECULE
LIGAND
   45    45     0     0     0
SMALL
NO_CHARGES

@<TRIPOS>ATOM
      1 C1         -0.7874   -0.7484    8.5279 C.ar      1 <0>         0.0000
      2 C2         -0.4100   -0.4763    7.2130 C.ar      1 <0>         0.0000
      3 C3         -1.6489   -1.8111    8.8006 C.ar      1 <0>         0.0000
      4 C4         -1.7555   -2.3295    6.4433 C.ar      1 <0>         0.0000
      5 C5         -0.8940   -1.2668    6.1707 C.ar      1 <0>         0.0000
      6 C6         -2.1330   -2.6016    7.7583 C.ar      1 <0>         0.0000
      7 C7         -0.4919   -0.9759    4.7701 C.2       1 <0>         0.0000
      8 C8          1.9325   -1.0133    2.6768 C.2       1 <0>         0.0000
      9 C9          0.1128    3.4388   -3.4370 C.3       1 <0>         0.0000
     10 C10        -0.1648    4.3761   -1.1165 C.3       1 <0>         0.0000
     11 C11         1.5761    0.1765   -1.0474 C.3       1 <0>         0.0000
     12 C12         0.4360    0.4372   -2.0380 C.3       1 <0>         0.0000
     13 C13         2.3649   -0.5352    1.2935 C.3       1 <0>         0.0000
     14 C14         1.1534   -0.2750    0.3710 C.3       1 <0>         0.0000
     15 C15         0.2674    3.1720   -1.9445 C.3       1 <0>         0.0000
     16 N1          0.3597   -1.5080    0.3138 N.3       1 <0>         0.0000
     17 N2          0.7320   -0.3536    4.6161 N.am      1 <0>         0.0000
     18 N3          1.1743   -0.0714    3.3469 N.am      1 <0>         0.0000
     19 O1         -1.2351   -1.3059    3.8493 O.2       1 <0>         0.0000
     20 O2          2.2555   -2.1109    3.1269 O.2       1 <0>         0.0000
     21 O3          3.2186   -1.5159    0.7230 O.3       1 <0>         0.0000
     22 S1         -0.7139    1.7277   -1.4786 S.3       1 <0>         0.0000
     23 Cl1        -3.1956   -3.9130    8.0955 Cl        1 <0>         0.0000
     24 H1         -0.4102   -0.1330    9.3393 H         1 <0>         0.0000
     25 H2          0.2618    0.3545    7.0131 H         1 <0>         0.0000
     26 H3         -1.9343   -2.0111    9.8301 H         1 <0>         0.0000
     27 H4         -2.1312   -2.9448    5.6282 H         1 <0>         0.0000
     28 H5         -0.9313    3.6698   -3.6761 H         1 <0>         0.0000
     29 H6          0.7168    4.2965   -3.7534 H         1 <0>         0.0000
     30 H7          0.4041    2.5712   -4.0399 H         1 <0>         0.0000
     31 H8         -1.2132    4.6215   -1.3199 H         1 <0>         0.0000
     32 H9          0.4307    5.2627   -1.3609 H         1 <0>         0.0000
     33 H10        -0.0742    4.1863   -0.0408 H         1 <0>         0.0000
     34 H11         2.1631    1.1018   -0.9736 H         1 <0>         0.0000
     35 H12         2.2520   -0.5707   -1.4824 H         1 <0>         0.0000
     36 H13        -0.1421   -0.4839   -2.1668 H         1 <0>         0.0000
     37 H14         0.8216    0.7132   -3.0237 H         1 <0>         0.0000
     38 H15         2.9484    0.3859    1.4229 H         1 <0>         0.0000
     39 H16         0.5249    0.4957    0.8291 H         1 <0>         0.0000
     40 H17         1.3162    2.9436   -1.7268 H         1 <0>         0.0000
     41 H18        -0.4842   -1.3249   -0.2178 H         1 <0>         0.0000
     42 H19         0.0690   -1.7492    1.2550 H         1 <0>         0.0000
     43 H20         1.2931   -0.1098    5.4249 H         1 <0>         0.0000
     44 H21         0.9480    0.8148    2.9078 H         1 <0>         0.0000
     45 H22         2.7041   -2.3378    0.6655 H         1 <0>         0.0000
@<TRIPOS>BOND
     1    1    2 ar
     2    1    3 ar
     3    2    5 ar
     4    3    6 ar
     5    4    5 ar
     6    4    6 ar
     7    5    7 1
     8    6   23 1
     9    7   17 am
    10    7   19 2
    11    8   13 1
    12    8   18 am
    13    8   20 2
    14    9   15 1
    15   10   15 1
    16   11   12 1
    17   11   14 1
    18   12   22 1
    19   13   14 1
    20   13   21 1
    21   14   16 1
    22   15   22 1
    23   17   18 1
    24    1   24 1
    25    2   25 1
    26    3   26 1
    27    4   27 1
    28    9   28 1
    29    9   29 1
    30    9   30 1
    31   10   31 1
    32   10   32 1
    33   10   33 1
    34   11   34 1
    35   11   35 1
    36   12   36 1
    37   12   37 1
    38   13   38 1
    39   14   39 1
    40   15   40 1
    41   16   41 1
    42   16   42 1
    43   17   43 1
    44   18   44 1
    45   21   45 1
@<TRIPOS>MOLECULE
LIGAND
   45    45     0     0     0
SMALL
NO_CHARGES

@<TRIPOS>ATOM
      1 C1          1.7569    0.2637    9.6380 C.ar      1 <0>         0.0000
      2 C2          2.1789    0.5972    8.3510 C.ar      1 <0>         0.0000
      3 C3          0.5658   -0.4388    9.8212 C.ar      1 <0>         0.0000
      4 C4          0.2188   -0.4741    7.4305 C.ar      1 <0>         0.0000
      5 C5          1.4099    0.2284    7.2473 C.ar      1 <0>         0.0000
      6 C6         -0.2032   -0.8077    8.7175 C.ar      1 <0>         0.0000
      7 C7          1.8600    0.5847    5.8768 C.2       1 <0>         0.0000
      8 C8          1.9325   -1.0133    2.6768 C.2       1 <0>         0.0000
      9 C9         -4.7601    2.7149    0.5929 C.3       1 <0>         0.0000
     10 C10        -3.4472    2.6704   -1.5553 C.3       1 <0>         0.0000
     11 C11         0.2195    0.8307    0.9188 C.3       1 <0>         0.0000
     12 C12        -1.0001    1.1700    0.0549 C.3       1 <0>         0.0000
     13 C13         2.3649   -0.5352    1.2935 C.3       1 <0>         0.0000
     14 C14         1.1534   -0.2750    0.3710 C.3       1 <0>         0.0000
     15 C15        -3.5656    2.1167   -0.1405 C.3       1 <0>         0.0000
     16 N1          1.6681    0.0834   -0.9557 N.3       1 <0>         0.0000
     17 N2          1.4238   -0.2520    4.8674 N.am      1 <0>         0.0000
     18 N3          1.7877    0.0290    3.5734 N.am      1 <0>         0.0000
     19 O1          2.5607    1.5803    5.7128 O.2       1 <0>         0.0000
     20 O2          1.7602   -2.2018    2.9407 O.2       1 <0>         0.0000
     21 O3          3.2186   -1.5159    0.7230 O.3       1 <0>         0.0000
     22 S1         -2.0492    2.4644    0.7791 S.3       1 <0>         0.0000
     23 Cl1        -1.6725   -1.6750    8.9443 Cl        1 <0>         0.0000
     24 H1          2.3559    0.5507   10.4971 H         1 <0>         0.0000
     25 H2          3.1088    1.1449    8.2210 H         1 <0>         0.0000
     26 H3          0.2496   -0.6918   10.8299 H         1 <0>         0.0000
     27 H4         -0.3788   -0.7611    6.5676 H         1 <0>         0.0000
     28 H5         -4.6637    3.8047    0.6519 H         1 <0>         0.0000
     29 H6         -5.6983    2.4987    0.0696 H         1 <0>         0.0000
     30 H7         -4.8423    2.3359    1.6179 H         1 <0>         0.0000
     31 H8         -3.3306    3.7597   -1.5293 H         1 <0>         0.0000
     32 H9         -4.3446    2.4528   -2.1452 H         1 <0>         0.0000
     33 H10        -2.5797    2.2592   -2.0841 H         1 <0>         0.0000
     34 H11        -0.1531    0.5335    1.9082 H         1 <0>         0.0000
     35 H12         0.7975    1.7493    1.0822 H         1 <0>         0.0000
     36 H13        -1.6176    0.2727   -0.0585 H         1 <0>         0.0000
     37 H14        -0.7009    1.4813   -0.9501 H         1 <0>         0.0000
     38 H15         2.9484    0.3859    1.4229 H         1 <0>         0.0000
     39 H16         0.5915   -1.2082    0.2610 H         1 <0>         0.0000
     40 H17        -3.6811    1.0287   -0.1886 H         1 <0>         0.0000
     41 H18         0.8845    0.1717   -1.5934 H         1 <0>         0.0000
     42 H19         2.2416   -0.6802   -1.2969 H         1 <0>         0.0000
     43 H20         0.8460   -1.0583    5.0782 H         1 <0>         0.0000
     44 H21         1.9478    0.9869    3.2798 H         1 <0>         0.0000
     45 H22         2.7041   -2.3378    0.6655 H         1 <0>         0.0000
@<TRIPOS>BOND
     1    1    2 ar
     2    1    3 ar
     3    2    5 ar
     4    3    6 ar
     5    4    5 ar
     6    4    6 ar
     7    5    7 1
     8    6   23 1
     9    7   17 am
    10    7   19 2
    11    8   13 1
    12    8   18 am
    13    8   20 2
    14    9   15 1
    15   10   15 1
    16   11   12 1
    17   11   14 1
    18   12   22 1
    19   13   14 1
    20   13   21 1
    21   14   16 1
    22   15   22 1
    23   17   18 1
    24    1   24 1
    25    2   25 1
    26    3   26 1
    27    4   27 1
    28    9   28 1
    29    9   29 1
    30    9   30 1
    31   10   31 1
    32   10   32 1
    33   10   33 1
    34   11   34 1
    35   11   35 1
    36   12   36 1
    37   12   37 1
    38   13   38 1
    39   14   39 1
    40   15   40 1
    41   16   41 1
    42   16   42 1
    43   17   43 1
    44   18   44 1
    45   21   45 1
@<TRIPOS>MOLECULE
LIGAND
   45    45     0     0     0
SMALL
NO_CHARGES

@<TRIPOS>ATOM
      1 C1          2.4230   -4.2883    8.5214 C.ar      1 <0>         0.0000
      2 C2          2.6907   -3.9683    7.1905 C.ar      1 <0>         0.0000
      3 C3          2.2530   -3.2726    9.4623 C.ar      1 <0>         0.0000
      4 C4          2.6187   -1.6170    7.7412 C.ar      1 <0>         0.0000
      5 C5          2.7886   -2.6327    6.8003 C.ar      1 <0>         0.0000
      6 C6          2.3509   -1.9370    9.0722 C.ar      1 <0>         0.0000
      7 C7          3.0744   -2.2928    5.3823 C.2       1 <0>         0.0000
      8 C8          1.9325   -1.0133    2.6768 C.2       1 <0>         0.0000
      9 C9         -4.2967    1.3927   -0.3375 C.3       1 <0>         0.0000
     10 C10        -4.0071    3.8901   -0.4781 C.3       1 <0>         0.0000
     11 C11         0.2195    0.8307    0.9188 C.3       1 <0>         0.0000
     12 C12        -1.0001    1.1700    0.0549 C.3       1 <0>         0.0000
     13 C13         2.3649   -0.5352    1.2935 C.3       1 <0>         0.0000
     14 C14         1.1534   -0.2750    0.3710 C.3       1 <0>         0.0000
     15 C15        -3.3066    2.5373   -0.5169 C.3       1 <0>         0.0000
     16 N1          1.6681    0.0834   -0.9557 N.3       1 <0>         0.0000
     17 N2          2.6023   -1.0670    4.9540 N.am      1 <0>         0.0000
     18 N3          2.8469   -0.6810    3.6590 N.am      1 <0>         0.0000
     19 O1          3.7083   -3.0847    4.6892 O.2       1 <0>         0.0000
     20 O2          0.8915   -1.6405    2.8632 O.2       1 <0>         0.0000
     21 O3          3.2186   -1.5159    0.7230 O.3       1 <0>         0.0000
     22 S1         -2.0492    2.4644    0.7791 S.3       1 <0>         0.0000
     23 Cl1         2.1407   -0.6842   10.2336 Cl        1 <0>         0.0000
     24 H1          2.3465   -5.3282    8.8249 H         1 <0>         0.0000
     25 H2          2.8213   -4.7686    6.4665 H         1 <0>         0.0000
     26 H3          2.0449   -3.5371   10.4958 H         1 <0>         0.0000
     27 H4          2.6951   -0.5760    7.4338 H         1 <0>         0.0000
     28 H5         -4.8186    1.4878    0.6213 H         1 <0>         0.0000
     29 H6         -5.0586    1.3975   -1.1249 H         1 <0>         0.0000
     30 H7         -3.7990    0.4164   -0.3457 H         1 <0>         0.0000
     31 H8         -4.5245    4.0235    0.4785 H         1 <0>         0.0000
     32 H9         -4.7599    3.9723   -1.2700 H         1 <0>         0.0000
     33 H10        -3.2998    4.7201   -0.5881 H         1 <0>         0.0000
     34 H11        -0.1531    0.5335    1.9082 H         1 <0>         0.0000
     35 H12         0.7975    1.7493    1.0822 H         1 <0>         0.0000
     36 H13        -1.6176    0.2727   -0.0585 H         1 <0>         0.0000
     37 H14        -0.7009    1.4813   -0.9501 H         1 <0>         0.0000
     38 H15         2.9484    0.3859    1.4229 H         1 <0>         0.0000
     39 H16         0.5915   -1.2082    0.2610 H         1 <0>         0.0000
     40 H17        -2.7965    2.4239   -1.4795 H         1 <0>         0.0000
     41 H18         0.8845    0.1717   -1.5934 H         1 <0>         0.0000
     42 H19         2.2416   -0.6802   -1.2969 H         1 <0>         0.0000
     43 H20         2.0849   -0.4638    5.5841 H         1 <0>         0.0000
     44 H21         3.6858   -0.1599    3.4266 H         1 <0>         0.0000
     45 H22         2.7041   -2.3378    0.6655 H         1 <0>         0.0000
@<TRIPOS>BOND
     1    1    2 ar
     2    1    3 ar
     3    2    5 ar
     4    3    6 ar
     5    4    5 ar
     6    4    6 ar
     7    5    7 1
     8    6   23 1
     9    7   17 am
    10    7   19 2
    11    8   13 1
    12    8   18 am
    13    8   20 2
    14    9   15 1
    15   10   15 1
    16   11   12 1
    17   11   14 1
    18   12   22 1
    19   13   14 1
    20   13   21 1
    21   14   16 1
    22   15   22 1
    23   17   18 1
    24    1   24 1
    25    2   25 1
    26    3   26 1
    27    4   27 1
    28    9   28 1
    29    9   29 1
    30    9   30 1
    31   10   31 1
    32   10   32 1
    33   10   33 1
    34   11   34 1
    35   11   35 1
    36   12   36 1
    37   12   37 1
    38   13   38 1
    39   14   39 1
    40   15   40 1
    41   16   41 1
    42   16   42 1
    43   17   43 1
    44   18   44 1
    45   21   45 1
@<TRIPOS>MOLECULE
LIGAND
   45    45     0     0     0
SMALL
NO_CHARGES

@<TRIPOS>ATOM
      1 C1          0.8626    0.8871    9.5064 C.ar      1 <0>         0.0000
      2 C2          1.2856    1.2206    8.2197 C.ar      1 <0>         0.0000
      3 C3          0.5640   -0.4388    9.8206 C.ar      1 <0>         0.0000
      4 C4          1.1113   -1.0975    7.5615 C.ar      1 <0>         0.0000
      5 C5          1.4099    0.2284    7.2473 C.ar      1 <0>         0.0000
      6 C6          0.6884   -1.4310    8.8482 C.ar      1 <0>         0.0000
      7 C7          1.8600    0.5847    5.8768 C.2       1 <0>         0.0000
      8 C8          1.9325   -1.0133    2.6768 C.2       1 <0>         0.0000
      9 C9         -4.7601    2.7149    0.5929 C.3       1 <0>         0.0000
     10 C10        -3.4472    2.6704   -1.5553 C.3       1 <0>         0.0000
     11 C11         0.2195    0.8307    0.9188 C.3       1 <0>         0.0000
     12 C12        -1.0001    1.1700    0.0549 C.3       1 <0>         0.0000
     13 C13         2.3649   -0.5352    1.2935 C.3       1 <0>         0.0000
     14 C14         1.1534   -0.2750    0.3710 C.3       1 <0>         0.0000
     15 C15        -3.5656    2.1167   -0.1405 C.3       1 <0>         0.0000
     16 N1          1.6681    0.0834   -0.9557 N.3       1 <0>         0.0000
     17 N2          1.4238   -0.2520    4.8674 N.am      1 <0>         0.0000
     18 N3          1.7877    0.0290    3.5734 N.am      1 <0>         0.0000
     19 O1          2.5607    1.5803    5.7128 O.2       1 <0>         0.0000
     20 O2          1.7602   -2.2018    2.9407 O.2       1 <0>         0.0000
     21 O3          3.2186   -1.5159    0.7230 O.3       1 <0>         0.0000
     22 S1         -2.0492    2.4644    0.7791 S.3       1 <0>         0.0000
     23 Cl1         0.3202   -3.0669    9.2368 Cl        1 <0>         0.0000
     24 H1          0.7662    1.6597   10.2634 H         1 <0>         0.0000
     25 H2          1.5152    2.2572    7.9869 H         1 <0>         0.0000
     26 H3          0.2356   -0.6836   10.8274 H         1 <0>         0.0000
     27 H4          1.2098   -1.8695    6.8011 H         1 <0>         0.0000
     28 H5         -4.6637    3.8047    0.6519 H         1 <0>         0.0000
     29 H6         -5.6983    2.4987    0.0696 H         1 <0>         0.0000
     30 H7         -4.8423    2.3359    1.6179 H         1 <0>         0.0000
     31 H8         -3.3306    3.7597   -1.5293 H         1 <0>         0.0000
     32 H9         -4.3446    2.4528   -2.1452 H         1 <0>         0.0000
     33 H10        -2.5797    2.2592   -2.0841 H         1 <0>         0.0000
     34 H11        -0.1531    0.5335    1.9082 H         1 <0>         0.0000
     35 H12         0.7975    1.7493    1.0822 H         1 <0>         0.0000
     36 H13        -1.6176    0.2727   -0.0585 H         1 <0>         0.0000
     37 H14        -0.7009    1.4813   -0.9501 H         1 <0>         0.0000
     38 H15         2.9484    0.3859    1.4229 H         1 <0>         0.0000
     39 H16         0.5915   -1.2082    0.2610 H         1 <0>         0.0000
     40 H17        -3.6811    1.0287   -0.1886 H         1 <0>         0.0000
     41 H18         0.8845    0.1717   -1.5934 H         1 <0>         0.0000
     42 H19         2.2416   -0.6802   -1.2969 H         1 <0>         0.0000
     43 H20         0.8460   -1.0583    5.0782 H         1 <0>         0.0000
     44 H21         1.9478    0.9869    3.2798 H         1 <0>         0.0000
     45 H22         2.7041   -2.3378    0.6655 H         1 <0>         0.0000
@<TRIPOS>BOND
     1    1    2 ar
     2    1    3 ar
     3    2    5 ar
     4    3    6 ar
     5    4    5 ar
     6    4    6 ar
     7    5    7 1
     8    6   23 1
     9    7   17 am
    10    7   19 2
    11    8   13 1
    12    8   18 am
    13    8   20 2
    14    9   15 1
    15   10   15 1
    16   11   12 1
    17   11   14 1
    18   12   22 1
    19   13   14 1
    20   13   21 1
    21   14   16 1
    22   15   22 1
    23   17   18 1
    24    1   24 1
    25    2   25 1
    26    3   26 1
    27    4   27 1
    28    9   28 1
    29    9   29 1
    30    9   30 1
    31   10   31 1
    32   10   32 1
    33   10   33 1
    34   11   34 1
    35   11   35 1
    36   12   36 1
    37   12   37 1
    38   13   38 1
    39   14   39 1
    40   15   40 1
    41   16   41 1
    42   16   42 1
    43   17   43 1
    44   18   44 1
    45   21   45 1
@<TRIPOS>MOLECULE
LIGAND
   45    45     0     0     0
SMALL
NO_CHARGES

@<TRIPOS>ATOM
      1 C1          0.3098   -0.7270    9.1684 C.ar      1 <0>         0.0000
      2 C2          0.5387   -0.2630    7.8731 C.ar      1 <0>         0.0000
      3 C3          1.1930   -1.6369    9.7496 C.ar      1 <0>         0.0000
      4 C4          2.5339   -1.6190    7.7400 C.ar      1 <0>         0.0000
      5 C5          1.6507   -0.7090    7.1588 C.ar      1 <0>         0.0000
      6 C6          2.3050   -2.0829    9.0354 C.ar      1 <0>         0.0000
      7 C7          1.8934   -0.2148    5.7787 C.2       1 <0>         0.0000
      8 C8          1.9325   -1.0133    2.6768 C.2       1 <0>         0.0000
      9 C9         -4.5752    3.1779    0.0331 C.3       1 <0>         0.0000
     10 C10        -2.7668    3.3107   -1.7140 C.3       1 <0>         0.0000
     11 C11         0.2195    0.8307    0.9188 C.3       1 <0>         0.0000
     12 C12        -1.0001    1.1700    0.0549 C.3       1 <0>         0.0000
     13 C13         2.3649   -0.5352    1.2935 C.3       1 <0>         0.0000
     14 C14         1.1534   -0.2750    0.3710 C.3       1 <0>         0.0000
     15 C15        -3.3066    2.5373   -0.5169 C.3       1 <0>         0.0000
     16 N1          1.6681    0.0834   -0.9557 N.3       1 <0>         0.0000
     17 N2          2.6023   -1.0670    4.9540 N.am      1 <0>         0.0000
     18 N3          2.8469   -0.6810    3.6590 N.am      1 <0>         0.0000
     19 O1          1.4534    0.8829    5.4461 O.2       1 <0>         0.0000
     20 O2          0.8915   -1.6405    2.8632 O.2       1 <0>         0.0000
     21 O3          3.2186   -1.5159    0.7230 O.3       1 <0>         0.0000
     22 S1         -2.0492    2.4644    0.7791 S.3       1 <0>         0.0000
     23 Cl1         3.3947   -3.2053    9.7533 Cl        1 <0>         0.0000
     24 H1         -0.5558   -0.3793    9.7245 H         1 <0>         0.0000
     25 H2         -0.1567    0.4458    7.4309 H         1 <0>         0.0000
     26 H3          1.0018   -1.9896   10.7598 H         1 <0>         0.0000
     27 H4          3.4009   -1.9648    7.1806 H         1 <0>         0.0000
     28 H5         -4.3764    4.2092    0.3452 H         1 <0>         0.0000
     29 H6         -5.3650    3.2137   -0.7256 H         1 <0>         0.0000
     30 H7         -4.9604    2.6385    0.9059 H         1 <0>         0.0000
     31 H8         -2.5401    4.3441   -1.4288 H         1 <0>         0.0000
     32 H9         -3.5004    3.3505   -2.5268 H         1 <0>         0.0000
     33 H10        -1.8438    2.8672   -2.1048 H         1 <0>         0.0000
     34 H11        -0.1531    0.5335    1.9082 H         1 <0>         0.0000
     35 H12         0.7975    1.7493    1.0822 H         1 <0>         0.0000
     36 H13        -1.6176    0.2727   -0.0585 H         1 <0>         0.0000
     37 H14        -0.7009    1.4813   -0.9501 H         1 <0>         0.0000
     38 H15         2.9484    0.3859    1.4229 H         1 <0>         0.0000
     39 H16         0.5915   -1.2082    0.2610 H         1 <0>         0.0000
     40 H17        -3.5264    1.5088   -0.8227 H         1 <0>         0.0000
     41 H18         0.8845    0.1717   -1.5934 H         1 <0>         0.0000
     42 H19         2.2416   -0.6802   -1.2969 H         1 <0>         0.0000
     43 H20         2.9356   -1.9607    5.2985 H         1 <0>         0.0000
     44 H21         3.6858   -0.1599    3.4266 H         1 <0>         0.0000
     45 H22         2.7041   -2.3378    0.6655 H         1 <0>         0.0000
@<TRIPOS>BOND
     1    1    2 ar
     2    1    3 ar
     3    2    5 ar
     4    3    6 ar
     5    4    5 ar
     6    4    6 ar
     7    5    7 1
     8    6   23 1
     9    7   17 am
    10    7   19 2
    11    8   13 1
    12    8   18 am
    13    8   20 2
    14    9   15 1
    15   10   15 1
    16   11   12 1
    17   11   14 1
    18   12   22 1
    19   13   14 1
    20   13   21 1
    21   14   16 1
    22   15   22 1
    23   17   18 1
    24    1   24 1
    25    2   25 1
    26    3   26 1
    27    4   27 1
    28    9   28 1
    29    9   29 1
    30    9   30 1
    31   10   31 1
    32   10   32 1
    33   10   33 1
    34   11   34 1
    35   11   35 1
    36   12   36 1
    37   12   37 1
    38   13   38 1
    39   14   39 1
    40   15   40 1
    41   16   41 1
    42   16   42 1
    43   17   43 1
    44   18   44 1
    45   21   45 1
@<TRIPOS>MOLECULE
LIGAND
   45    45     0     0     0
SMALL
NO_CHARGES

@<TRIPOS>ATOM
      1 C1          1.3200   -1.9638    8.8676 C.ar      1 <0>         0.0000
      2 C2          1.6218   -1.5213    7.5797 C.ar      1 <0>         0.0000
      3 C3          2.1606   -1.6378    9.9320 C.ar      1 <0>         0.0000
      4 C4          3.6050   -0.4271    8.4204 C.ar      1 <0>         0.0000
      5 C5          2.7643   -0.7530    7.3561 C.ar      1 <0>         0.0000
      6 C6          3.3031   -0.8695    9.7084 C.ar      1 <0>         0.0000
      7 C7          3.0854   -0.2826    5.9837 C.2       1 <0>         0.0000
      8 C8          1.9325   -1.0133    2.6768 C.2       1 <0>         0.0000
      9 C9         -4.2967    1.3927   -0.3375 C.3       1 <0>         0.0000
     10 C10        -4.0071    3.8901   -0.4781 C.3       1 <0>         0.0000
     11 C11         0.2195    0.8307    0.9188 C.3       1 <0>         0.0000
     12 C12        -1.0001    1.1700    0.0549 C.3       1 <0>         0.0000
     13 C13         2.3649   -0.5352    1.2935 C.3       1 <0>         0.0000
     14 C14         1.1534   -0.2750    0.3710 C.3       1 <0>         0.0000
     15 C15        -3.3066    2.5373   -0.5169 C.3       1 <0>         0.0000
     16 N1          1.6681    0.0834   -0.9557 N.3       1 <0>         0.0000
     17 N2          2.6023   -1.0670    4.9540 N.am      1 <0>         0.0000
     18 N3          2.8469   -0.6810    3.6590 N.am      1 <0>         0.0000
     19 O1          3.7293    0.7533    5.8374 O.2       1 <0>         0.0000
     20 O2          0.8915   -1.6405    2.8632 O.2       1 <0>         0.0000
     21 O3          3.2186   -1.5159    0.7230 O.3       1 <0>         0.0000
     22 S1         -2.0492    2.4644    0.7791 S.3       1 <0>         0.0000
     23 Cl1         4.3397   -0.4674   11.0222 Cl        1 <0>         0.0000
     24 H1          0.4302   -2.5616    9.0415 H         1 <0>         0.0000
     25 H2          0.9591   -1.7818    6.7584 H         1 <0>         0.0000
     26 H3          1.9126   -1.9897   10.9300 H         1 <0>         0.0000
     27 H4          4.4953    0.1729    8.2431 H         1 <0>         0.0000
     28 H5         -4.8186    1.4878    0.6213 H         1 <0>         0.0000
     29 H6         -5.0586    1.3975   -1.1249 H         1 <0>         0.0000
     30 H7         -3.7990    0.4164   -0.3457 H         1 <0>         0.0000
     31 H8         -4.5245    4.0235    0.4785 H         1 <0>         0.0000
     32 H9         -4.7599    3.9723   -1.2700 H         1 <0>         0.0000
     33 H10        -3.2998    4.7201   -0.5881 H         1 <0>         0.0000
     34 H11        -0.1531    0.5335    1.9082 H         1 <0>         0.0000
     35 H12         0.7975    1.7493    1.0822 H         1 <0>         0.0000
     36 H13        -1.6176    0.2727   -0.0585 H         1 <0>         0.0000
     37 H14        -0.7009    1.4813   -0.9501 H         1 <0>         0.0000
     38 H15         2.9484    0.3859    1.4229 H         1 <0>         0.0000
     39 H16         0.5915   -1.2082    0.2610 H         1 <0>         0.0000
     40 H17        -2.7965    2.4239   -1.4795 H         1 <0>         0.0000
     41 H18         0.8845    0.1717   -1.5934 H         1 <0>         0.0000
     42 H19         2.2416   -0.6802   -1.2969 H         1 <0>         0.0000
     43 H20         2.0769   -1.9119    5.1509 H         1 <0>         0.0000
     44 H21         3.6858   -0.1599    3.4266 H         1 <0>         0.0000
     45 H22         2.7041   -2.3378    0.6655 H         1 <0>         0.0000
@<TRIPOS>BOND
     1    1    2 ar
     2    1    3 ar
     3    2    5 ar
     4    3    6 ar
     5    4    5 ar
     6    4    6 ar
     7    5    7 1
     8    6   23 1
     9    7   17 am
    10    7   19 2
    11    8   13 1
    12    8   18 am
    13    8   20 2
    14    9   15 1
    15   10   15 1
    16   11   12 1
    17   11   14 1
    18   12   22 1
    19   13   14 1
    20   13   21 1
    21   14   16 1
    22   15   22 1
    23   17   18 1
    24    1   24 1
    25    2   25 1
    26    3   26 1
    27    4   27 1
    28    9   28 1
    29    9   29 1
    30    9   30 1
    31   10   31 1
    32   10   32 1
    33   10   33 1
    34   11   34 1
    35   11   35 1
    36   12   36 1
    37   12   37 1
    38   13   38 1
    39   14   39 1
    40   15   40 1
    41   16   41 1
    42   16   42 1
    43   17   43 1
    44   18   44 1
    45   21   45 1
@<TRIPOS>MOLECULE
LIGAND
   45    45     0     0     0
SMALL
NO_CHARGES

@<TRIPOS>ATOM
      1 C1         -2.8134   -3.6397    6.9542 C.ar      1 <0>         0.0000
      2 C2         -2.3780   -3.0405    5.7723 C.ar      1 <0>         0.0000
      3 C3         -1.8836   -4.1212    7.8758 C.ar      1 <0>         0.0000
      4 C4         -0.0829   -3.4042    6.4334 C.ar      1 <0>         0.0000
      5 C5         -1.0128   -2.9227    5.5119 C.ar      1 <0>         0.0000
      6 C6         -0.5183   -4.0035    7.6154 C.ar      1 <0>         0.0000
      7 C7         -0.5498   -2.2848    4.2523 C.2       1 <0>         0.0000
      8 C8          1.9325   -1.0133    2.6768 C.2       1 <0>         0.0000
      9 C9         -4.1299   -0.4675   -2.0276 C.3       1 <0>         0.0000
     10 C10        -4.2566    1.4118   -0.3565 C.3       1 <0>         0.0000
     11 C11         0.2195    0.8307    0.9188 C.3       1 <0>         0.0000
     12 C12        -1.0001    1.1700    0.0549 C.3       1 <0>         0.0000
     13 C13         2.3649   -0.5352    1.2935 C.3       1 <0>         0.0000
     14 C14         1.1534   -0.2750    0.3710 C.3       1 <0>         0.0000
     15 C15        -3.3416    0.5718   -1.2395 C.3       1 <0>         0.0000
     16 N1          1.6681    0.0834   -0.9557 N.3       1 <0>         0.0000
     17 N2          0.6851   -2.6985    3.7909 N.am      1 <0>         0.0000
     18 N3          1.1665   -2.1628    2.6216 N.am      1 <0>         0.0000
     19 O1         -1.2703   -1.4609    3.6944 O.2       1 <0>         0.0000
     20 O2          2.2299   -0.4108    3.7066 O.2       1 <0>         0.0000
     21 O3          3.2186   -1.5159    0.7230 O.3       1 <0>         0.0000
     22 S1         -2.0977   -0.2515   -0.2193 S.3       1 <0>         0.0000
     23 Cl1         0.6285   -4.5974    8.7532 Cl        1 <0>         0.0000
     24 H1         -3.8765   -3.7310    7.1569 H         1 <0>         0.0000
     25 H2         -3.1122   -2.6692    5.0619 H         1 <0>         0.0000
     26 H3         -2.2377   -4.5858    8.7924 H         1 <0>         0.0000
     27 H4          0.9816   -3.3106    6.2279 H         1 <0>         0.0000
     28 H5         -4.6663   -1.1363   -1.3453 H         1 <0>         0.0000
     29 H6         -4.8772    0.0053   -2.6747 H         1 <0>         0.0000
     30 H7         -3.4774   -1.0886   -2.6519 H         1 <0>         0.0000
     31 H8         -4.7949    0.7719    0.3515 H         1 <0>         0.0000
     32 H9         -5.0077    1.9429   -0.9517 H         1 <0>         0.0000
     33 H10        -3.6957    2.1500    0.2280 H         1 <0>         0.0000
     34 H11        -0.1531    0.5335    1.9082 H         1 <0>         0.0000
     35 H12         0.7975    1.7493    1.0822 H         1 <0>         0.0000
     36 H13        -0.6573    1.5138   -0.9268 H         1 <0>         0.0000
     37 H14        -1.5832    1.9849    0.4933 H         1 <0>         0.0000
     38 H15         2.9484    0.3859    1.4229 H         1 <0>         0.0000
     39 H16         0.5915   -1.2082    0.2610 H         1 <0>         0.0000
     40 H17        -2.8138    1.2291   -1.9386 H         1 <0>         0.0000
     41 H18         0.8845    0.1717   -1.5934 H         1 <0>         0.0000
     42 H19         2.2416   -0.6802   -1.2969 H         1 <0>         0.0000
     43 H20         1.2257   -3.3847    4.3060 H         1 <0>         0.0000
     44 H21         0.9630   -2.6038    1.7309 H         1 <0>         0.0000
     45 H22         2.7041   -2.3378    0.6655 H         1 <0>         0.0000
@<TRIPOS>BOND
     1    1    2 ar
     2    1    3 ar
     3    2    5 ar
     4    3    6 ar
     5    4    5 ar
     6    4    6 ar
     7    5    7 1
     8    6   23 1
     9    7   17 am
    10    7   19 2
    11    8   13 1
    12    8   18 am
    13    8   20 2
    14    9   15 1
    15   10   15 1
    16   11   12 1
    17   11   14 1
    18   12   22 1
    19   13   14 1
    20   13   21 1
    21   14   16 1
    22   15   22 1
    23   17   18 1
    24    1   24 1
    25    2   25 1
    26    3   26 1
    27    4   27 1
    28    9   28 1
    29    9   29 1
    30    9   30 1
    31   10   31 1
    32   10   32 1
    33   10   33 1
    34   11   34 1
    35   11   35 1
    36   12   36 1
    37   12   37 1
    38   13   38 1
    39   14   39 1
    40   15   40 1
    41   16   41 1
    42   16   42 1
    43   17   43 1
    44   18   44 1
    45   21   45 1
@<TRIPOS>MOLECULE
LIGAND
   45    45     0     0     0
SMALL
NO_CHARGES

@<TRIPOS>ATOM
      1 C1          1.4050   -2.4049    8.7677 C.ar      1 <0>         0.0000
      2 C2          1.6744   -2.0859    7.4368 C.ar      1 <0>         0.0000
      3 C3          2.2499   -3.2707    9.4621 C.ar      1 <0>         0.0000
      4 C4          3.6334   -3.4986    7.4947 C.ar      1 <0>         0.0000
      5 C5          2.7886   -2.6327    6.8003 C.ar      1 <0>         0.0000
      6 C6          3.3641   -3.8176    8.8256 C.ar      1 <0>         0.0000
      7 C7          3.0744   -2.2928    5.3823 C.2       1 <0>         0.0000
      8 C8          1.9325   -1.0133    2.6768 C.2       1 <0>         0.0000
      9 C9         -4.5752    3.1779    0.0331 C.3       1 <0>         0.0000
     10 C10        -2.7668    3.3107   -1.7140 C.3       1 <0>         0.0000
     11 C11         0.2195    0.8307    0.9188 C.3       1 <0>         0.0000
     12 C12        -1.0001    1.1700    0.0549 C.3       1 <0>         0.0000
     13 C13         2.3649   -0.5352    1.2935 C.3       1 <0>         0.0000
     14 C14         1.1534   -0.2750    0.3710 C.3       1 <0>         0.0000
     15 C15        -3.3066    2.5373   -0.5169 C.3       1 <0>         0.0000
     16 N1          1.6681    0.0834   -0.9557 N.3       1 <0>         0.0000
     17 N2          2.6023   -1.0670    4.9540 N.am      1 <0>         0.0000
     18 N3          2.8469   -0.6810    3.6590 N.am      1 <0>         0.0000
     19 O1          3.7083   -3.0847    4.6892 O.2       1 <0>         0.0000
     20 O2          0.8915   -1.6405    2.8632 O.2       1 <0>         0.0000
     21 O3          3.2186   -1.5159    0.7230 O.3       1 <0>         0.0000
     22 S1         -2.0492    2.4644    0.7791 S.3       1 <0>         0.0000
     23 Cl1         4.4064   -4.8856    9.6833 Cl        1 <0>         0.0000
     24 H1          0.5376   -1.9787    9.2631 H         1 <0>         0.0000
     25 H2          1.0086   -1.4100    6.9061 H         1 <0>         0.0000
     26 H3          2.0273   -3.5102   10.4987 H         1 <0>         0.0000
     27 H4          4.5022   -3.9233    6.9958 H         1 <0>         0.0000
     28 H5         -4.3764    4.2092    0.3452 H         1 <0>         0.0000
     29 H6         -5.3650    3.2137   -0.7256 H         1 <0>         0.0000
     30 H7         -4.9604    2.6385    0.9059 H         1 <0>         0.0000
     31 H8         -2.5401    4.3441   -1.4288 H         1 <0>         0.0000
     32 H9         -3.5004    3.3505   -2.5268 H         1 <0>         0.0000
     33 H10        -1.8438    2.8672   -2.1048 H         1 <0>         0.0000
     34 H11        -0.1531    0.5335    1.9082 H         1 <0>         0.0000
     35 H12         0.7975    1.7493    1.0822 H         1 <0>         0.0000
     36 H13        -1.6176    0.2727   -0.0585 H         1 <0>         0.0000
     37 H14        -0.7009    1.4813   -0.9501 H         1 <0>         0.0000
     38 H15         2.9484    0.3859    1.4229 H         1 <0>         0.0000
     39 H16         0.5915   -1.2082    0.2610 H         1 <0>         0.0000
     40 H17        -3.5264    1.5088   -0.8227 H         1 <0>         0.0000
     41 H18         0.8845    0.1717   -1.5934 H         1 <0>         0.0000
     42 H19         2.2416   -0.6802   -1.2969 H         1 <0>         0.0000
     43 H20         2.0849   -0.4638    5.5841 H         1 <0>         0.0000
     44 H21         3.6858   -0.1599    3.4266 H         1 <0>         0.0000
     45 H22         2.7041   -2.3378    0.6655 H         1 <0>         0.0000
@<TRIPOS>BOND
     1    1    2 ar
     2    1    3 ar
     3    2    5 ar
     4    3    6 ar
     5    4    5 ar
     6    4    6 ar
     7    5    7 1
     8    6   23 1
     9    7   17 am
    10    7   19 2
    11    8   13 1
    12    8   18 am
    13    8   20 2
    14    9   15 1
    15   10   15 1
    16   11   12 1
    17   11   14 1
    18   12   22 1
    19   13   14 1
    20   13   21 1
    21   14   16 1
    22   15   22 1
    23   17   18 1
    24    1   24 1
    25    2   25 1
    26    3   26 1
    27    4   27 1
    28    9   28 1
    29    9   29 1
    30    9   30 1
    31   10   31 1
    32   10   32 1
    33   10   33 1
    34   11   34 1
    35   11   35 1
    36   12   36 1
    37   12   37 1
    38   13   38 1
    39   14   39 1
    40   15   40 1
    41   16   41 1
    42   16   42 1
    43   17   43 1
    44   18   44 1
    45   21   45 1
@<TRIPOS>MOLECULE
LIGAND
   45    45     0     0     0
SMALL
NO_CHARGES

@<TRIPOS>ATOM
      1 C1         -2.1326   -2.6043    7.7561 C.ar      1 <0>         0.0000
      2 C2         -1.7551   -2.3302    6.4416 C.ar      1 <0>         0.0000
      3 C3         -1.6491   -1.8151    8.7997 C.ar      1 <0>         0.0000
      4 C4         -0.4104   -0.4776    7.2142 C.ar      1 <0>         0.0000
      5 C5         -0.8940   -1.2668    6.1707 C.ar      1 <0>         0.0000
      6 C6         -0.7879   -0.7518    8.5287 C.ar      1 <0>         0.0000
      7 C7         -0.4919   -0.9759    4.7701 C.2       1 <0>         0.0000
      8 C8          1.9325   -1.0133    2.6768 C.2       1 <0>         0.0000
      9 C9         -2.8125    0.5348   -2.7511 C.3       1 <0>         0.0000
     10 C10        -2.5812    3.0315   -2.9817 C.3       1 <0>         0.0000
     11 C11         1.5761    0.1765   -1.0474 C.3       1 <0>         0.0000
     12 C12         0.4360    0.4372   -2.0380 C.3       1 <0>         0.0000
     13 C13         2.3649   -0.5352    1.2935 C.3       1 <0>         0.0000
     14 C14         1.1534   -0.2750    0.3710 C.3       1 <0>         0.0000
     15 C15        -1.8423    1.7019   -2.8899 C.3       1 <0>         0.0000
     16 N1          0.3597   -1.5080    0.3138 N.3       1 <0>         0.0000
     17 N2          0.7320   -0.3536    4.6161 N.am      1 <0>         0.0000
     18 N3          1.1743   -0.0714    3.3469 N.am      1 <0>         0.0000
     19 O1         -1.2351   -1.3059    3.8493 O.2       1 <0>         0.0000
     20 O2          2.2555   -2.1109    3.1269 O.2       1 <0>         0.0000
     21 O3          3.2186   -1.5159    0.7230 O.3       1 <0>         0.0000
     22 S1         -0.7139    1.7277   -1.4786 S.3       1 <0>         0.0000
     23 Cl1        -0.1920    0.2220    9.8169 Cl        1 <0>         0.0000
     24 H1         -2.8034   -3.4321    7.9668 H         1 <0>         0.0000
     25 H2         -2.1385   -2.9523    5.6369 H         1 <0>         0.0000
     26 H3         -1.9519   -2.0407    9.8189 H         1 <0>         0.0000
     27 H4          0.2608    0.3516    6.9998 H         1 <0>         0.0000
     28 H5         -3.4266    0.6553   -1.8516 H         1 <0>         0.0000
     29 H6         -3.4950    0.4797   -3.6065 H         1 <0>         0.0000
     30 H7         -2.2889   -0.4243   -2.6659 H         1 <0>         0.0000
     31 H8         -3.1918    3.1904   -2.0858 H         1 <0>         0.0000
     32 H9         -3.2564    3.0539   -3.8443 H         1 <0>         0.0000
     33 H10        -1.8903    3.8784   -3.0633 H         1 <0>         0.0000
     34 H11         2.1631    1.1018   -0.9736 H         1 <0>         0.0000
     35 H12         2.2520   -0.5707   -1.4824 H         1 <0>         0.0000
     36 H13        -0.1421   -0.4839   -2.1668 H         1 <0>         0.0000
     37 H14         0.8216    0.7132   -3.0237 H         1 <0>         0.0000
     38 H15         2.9484    0.3859    1.4229 H         1 <0>         0.0000
     39 H16         0.5249    0.4957    0.8291 H         1 <0>         0.0000
     40 H17        -1.2390    1.5625   -3.7933 H         1 <0>         0.0000
     41 H18        -0.4842   -1.3249   -0.2178 H         1 <0>         0.0000
     42 H19         0.0690   -1.7492    1.2550 H         1 <0>         0.0000
     43 H20         1.2931   -0.1098    5.4249 H         1 <0>         0.0000
     44 H21         0.9480    0.8148    2.9078 H         1 <0>         0.0000
     45 H22         2.7041   -2.3378    0.6655 H         1 <0>         0.0000
@<TRIPOS>BOND
     1    1    2 ar
     2    1    3 ar
     3    2    5 ar
     4    3    6 ar
     5    4    5 ar
     6    4    6 ar
     7    5    7 1
     8    6   23 1
     9    7   17 am
    10    7   19 2
    11    8   13 1
    12    8   18 am
    13    8   20 2
    14    9   15 1
    15   10   15 1
    16   11   12 1
    17   11   14 1
    18   12   22 1
    19   13   14 1
    20   13   21 1
    21   14   16 1
    22   15   22 1
    23   17   18 1
    24    1   24 1
    25    2   25 1
    26    3   26 1
    27    4   27 1
    28    9   28 1
    29    9   29 1
    30    9   30 1
    31   10   31 1
    32   10   32 1
    33   10   33 1
    34   11   34 1
    35   11   35 1
    36   12   36 1
    37   12   37 1
    38   13   38 1
    39   14   39 1
    40   15   40 1
    41   16   41 1
    42   16   42 1
    43   17   43 1
    44   18   44 1
    45   21   45 1
@<TRIPOS>MOLECULE
LIGAND
   45    45     0     0     0
SMALL
NO_CHARGES

@<TRIPOS>ATOM
      1 C1         -0.3215   -0.8559    8.6664 C.ar      1 <0>         0.0000
      2 C2          0.0752   -0.5122    7.3741 C.ar      1 <0>         0.0000
      3 C3         -1.6746   -0.8506    9.0052 C.ar      1 <0>         0.0000
      4 C4         -2.2343   -0.1577    6.7594 C.ar      1 <0>         0.0000
      5 C5         -0.8811   -0.1631    6.4206 C.ar      1 <0>         0.0000
      6 C6         -2.6310   -0.5015    8.0517 C.ar      1 <0>         0.0000
      7 C7         -0.4576    0.2036    5.0443 C.2       1 <0>         0.0000
      8 C8          1.9325   -1.0133    2.6768 C.2       1 <0>         0.0000
      9 C9          3.3218    4.6503   -1.4873 C.3       1 <0>         0.0000
     10 C10         2.5201    5.0479    0.8663 C.3       1 <0>         0.0000
     11 C11         1.5761    0.1765   -1.0474 C.3       1 <0>         0.0000
     12 C12         2.3784    1.4800   -1.1273 C.3       1 <0>         0.0000
     13 C13         2.3649   -0.5352    1.2935 C.3       1 <0>         0.0000
     14 C14         1.1534   -0.2750    0.3710 C.3       1 <0>         0.0000
     15 C15         2.8874    4.0013   -0.1787 C.3       1 <0>         0.0000
     16 N1          0.3597   -1.5080    0.3138 N.3       1 <0>         0.0000
     17 N2          0.7320   -0.3536    4.6161 N.am      1 <0>         0.0000
     18 N3          1.1743   -0.0714    3.3469 N.am      1 <0>         0.0000
     19 O1         -1.1696    0.9461    4.3728 O.2       1 <0>         0.0000
     20 O2          2.2555   -2.1109    3.1269 O.2       1 <0>         0.0000
     21 O3          3.2186   -1.5159    0.7230 O.3       1 <0>         0.0000
     22 S1          1.4741    2.9151   -0.4766 S.3       1 <0>         0.0000
     23 Cl1        -4.3005   -0.4957    8.4703 Cl        1 <0>         0.0000
     24 H1          0.4232   -1.1280    9.4085 H         1 <0>         0.0000
     25 H2          1.1326   -0.5199    7.1221 H         1 <0>         0.0000
     26 H3         -1.9688   -1.1207   10.0161 H         1 <0>         0.0000
     27 H4         -2.9782    0.1145    6.0133 H         1 <0>         0.0000
     28 H5          2.5159    5.2753   -1.8880 H         1 <0>         0.0000
     29 H6          4.1939    5.2975   -1.3412 H         1 <0>         0.0000
     30 H7          3.5704    3.9045   -2.2509 H         1 <0>         0.0000
     31 H8          1.7019    5.6790    0.5018 H         1 <0>         0.0000
     32 H9          3.3673    5.7072    1.0854 H         1 <0>         0.0000
     33 H10         2.1889    4.5896    1.8052 H         1 <0>         0.0000
     34 H11         2.1843   -0.6108   -1.5125 H         1 <0>         0.0000
     35 H12         0.6847    0.2765   -1.6798 H         1 <0>         0.0000
     36 H13         2.6151    1.6893   -2.1758 H         1 <0>         0.0000
     37 H14         3.3304    1.3937   -0.5957 H         1 <0>         0.0000
     38 H15         2.9484    0.3859    1.4229 H         1 <0>         0.0000
     39 H16         0.5249    0.4957    0.8291 H         1 <0>         0.0000
     40 H17         3.7055    3.3821    0.2046 H         1 <0>         0.0000
     41 H18        -0.4842   -1.3249   -0.2178 H         1 <0>         0.0000
     42 H19         0.0690   -1.7492    1.2550 H         1 <0>         0.0000
     43 H20         1.2684   -0.9594    5.2274 H         1 <0>         0.0000
     44 H21         0.9480    0.8148    2.9078 H         1 <0>         0.0000
     45 H22         2.7041   -2.3378    0.6655 H         1 <0>         0.0000
@<TRIPOS>BOND
     1    1    2 ar
     2    1    3 ar
     3    2    5 ar
     4    3    6 ar
     5    4    5 ar
     6    4    6 ar
     7    5    7 1
     8    6   23 1
     9    7   17 am
    10    7   19 2
    11    8   13 1
    12    8   18 am
    13    8   20 2
    14    9   15 1
    15   10   15 1
    16   11   12 1
    17   11   14 1
    18   12   22 1
    19   13   14 1
    20   13   21 1
    21   14   16 1
    22   15   22 1
    23   17   18 1
    24    1   24 1
    25    2   25 1
    26    3   26 1
    27    4   27 1
    28    9   28 1
    29    9   29 1
    30    9   30 1
    31   10   31 1
    32   10   32 1
    33   10   33 1
    34   11   34 1
    35   11   35 1
    36   12   36 1
    37   12   37 1
    38   13   38 1
    39   14   39 1
    40   15   40 1
    41   16   41 1
    42   16   42 1
    43   17   43 1
    44   18   44 1
    45   21   45 1
@<TRIPOS>MOLECULE
LIGAND
   45    45     0     0     0
SMALL
NO_CHARGES

@<TRIPOS>ATOM
      1 C1         -2.3305   -2.8430    7.5352 C.ar      1 <0>         0.0000
      2 C2         -1.8950   -2.2446    6.3529 C.ar      1 <0>         0.0000
      3 C3         -1.8838   -4.1195    7.8766 C.ar      1 <0>         0.0000
      4 C4         -0.5660   -4.1993    5.8532 C.ar      1 <0>         0.0000
      5 C5         -1.0128   -2.9227    5.5119 C.ar      1 <0>         0.0000
      6 C6         -1.0015   -4.7977    7.0355 C.ar      1 <0>         0.0000
      7 C7         -0.5498   -2.2848    4.2523 C.2       1 <0>         0.0000
      8 C8          1.9325   -1.0133    2.6768 C.2       1 <0>         0.0000
      9 C9         -4.1299   -0.4675   -2.0276 C.3       1 <0>         0.0000
     10 C10        -4.2566    1.4118   -0.3565 C.3       1 <0>         0.0000
     11 C11         0.2195    0.8307    0.9188 C.3       1 <0>         0.0000
     12 C12        -1.0001    1.1700    0.0549 C.3       1 <0>         0.0000
     13 C13         2.3649   -0.5352    1.2935 C.3       1 <0>         0.0000
     14 C14         1.1534   -0.2750    0.3710 C.3       1 <0>         0.0000
     15 C15        -3.3416    0.5718   -1.2395 C.3       1 <0>         0.0000
     16 N1          1.6681    0.0834   -0.9557 N.3       1 <0>         0.0000
     17 N2          0.6851   -2.6985    3.7909 N.am      1 <0>         0.0000
     18 N3          1.1665   -2.1628    2.6216 N.am      1 <0>         0.0000
     19 O1         -1.2703   -1.4609    3.6944 O.2       1 <0>         0.0000
     20 O2          2.2299   -0.4108    3.7066 O.2       1 <0>         0.0000
     21 O3          3.2186   -1.5159    0.7230 O.3       1 <0>         0.0000
     22 S1         -2.0977   -0.2515   -0.2193 S.3       1 <0>         0.0000
     23 Cl1        -0.4502   -6.3727    7.4576 Cl        1 <0>         0.0000
     24 H1         -3.0172   -2.3146    8.1901 H         1 <0>         0.0000
     25 H2         -2.2503   -1.2495    6.0977 H         1 <0>         0.0000
     26 H3         -2.2317   -4.5731    8.8010 H         1 <0>         0.0000
     27 H4          0.1227   -4.7258    5.1954 H         1 <0>         0.0000
     28 H5         -4.6663   -1.1363   -1.3453 H         1 <0>         0.0000
     29 H6         -4.8772    0.0053   -2.6747 H         1 <0>         0.0000
     30 H7         -3.4774   -1.0886   -2.6519 H         1 <0>         0.0000
     31 H8         -4.7949    0.7719    0.3515 H         1 <0>         0.0000
     32 H9         -5.0077    1.9429   -0.9517 H         1 <0>         0.0000
     33 H10        -3.6957    2.1500    0.2280 H         1 <0>         0.0000
     34 H11        -0.1531    0.5335    1.9082 H         1 <0>         0.0000
     35 H12         0.7975    1.7493    1.0822 H         1 <0>         0.0000
     36 H13        -0.6573    1.5138   -0.9268 H         1 <0>         0.0000
     37 H14        -1.5832    1.9849    0.4933 H         1 <0>         0.0000
     38 H15         2.9484    0.3859    1.4229 H         1 <0>         0.0000
     39 H16         0.5915   -1.2082    0.2610 H         1 <0>         0.0000
     40 H17        -2.8138    1.2291   -1.9386 H         1 <0>         0.0000
     41 H18         0.8845    0.1717   -1.5934 H         1 <0>         0.0000
     42 H19         2.2416   -0.6802   -1.2969 H         1 <0>         0.0000
     43 H20         1.2257   -3.3847    4.3060 H         1 <0>         0.0000
     44 H21         0.9630   -2.6038    1.7309 H         1 <0>         0.0000
     45 H22         2.7041   -2.3378    0.6655 H         1 <0>         0.0000
@<TRIPOS>BOND
     1    1    2 ar
     2    1    3 ar
     3    2    5 ar
     4    3    6 ar
     5    4    5 ar
     6    4    6 ar
     7    5    7 1
     8    6   23 1
     9    7   17 am
    10    7   19 2
    11    8   13 1
    12    8   18 am
    13    8   20 2
    14    9   15 1
    15   10   15 1
    16   11   12 1
    17   11   14 1
    18   12   22 1
    19   13   14 1
    20   13   21 1
    21   14   16 1
    22   15   22 1
    23   17   18 1
    24    1   24 1
    25    2   25 1
    26    3   26 1
    27    4   27 1
    28    9   28 1
    29    9   29 1
    30    9   30 1
    31   10   31 1
    32   10   32 1
    33   10   33 1
    34   11   34 1
    35   11   35 1
    36   12   36 1
    37   12   37 1
    38   13   38 1
    39   14   39 1
    40   15   40 1
    41   16   41 1
    42   16   42 1
    43   17   43 1
    44   18   44 1
    45   21   45 1
@<TRIPOS>MOLECULE
LIGAND
   45    45     0     0     0
SMALL
NO_CHARGES

@<TRIPOS>ATOM
      1 C1          2.3494   -1.9340    9.0709 C.ar      1 <0>         0.0000
      2 C2          2.6184   -1.6158    7.7398 C.ar      1 <0>         0.0000
      3 C3          2.2507   -3.2692    9.4627 C.ar      1 <0>         0.0000
      4 C4          2.6898   -3.9679    7.1920 C.ar      1 <0>         0.0000
      5 C5          2.7886   -2.6327    6.8003 C.ar      1 <0>         0.0000
      6 C6          2.4209   -4.2860    8.5232 C.ar      1 <0>         0.0000
      7 C7          3.0744   -2.2928    5.3823 C.2       1 <0>         0.0000
      8 C8          1.9325   -1.0133    2.6768 C.2       1 <0>         0.0000
      9 C9         -4.5752    3.1779    0.0331 C.3       1 <0>         0.0000
     10 C10        -2.7668    3.3107   -1.7140 C.3       1 <0>         0.0000
     11 C11         0.2195    0.8307    0.9188 C.3       1 <0>         0.0000
     12 C12        -1.0001    1.1700    0.0549 C.3       1 <0>         0.0000
     13 C13         2.3649   -0.5352    1.2935 C.3       1 <0>         0.0000
     14 C14         1.1534   -0.2750    0.3710 C.3       1 <0>         0.0000
     15 C15        -3.3066    2.5373   -0.5169 C.3       1 <0>         0.0000
     16 N1          1.6681    0.0834   -0.9557 N.3       1 <0>         0.0000
     17 N2          2.6023   -1.0670    4.9540 N.am      1 <0>         0.0000
     18 N3          2.8469   -0.6810    3.6590 N.am      1 <0>         0.0000
     19 O1          3.7083   -3.0847    4.6892 O.2       1 <0>         0.0000
     20 O2          0.8915   -1.6405    2.8632 O.2       1 <0>         0.0000
     21 O3          3.2186   -1.5159    0.7230 O.3       1 <0>         0.0000
     22 S1         -2.0492    2.4644    0.7791 S.3       1 <0>         0.0000
     23 Cl1         2.2994   -5.9333    9.0073 Cl        1 <0>         0.0000
     24 H1          2.2173   -1.1422    9.8023 H         1 <0>         0.0000
     25 H2          2.6929   -0.5718    7.4466 H         1 <0>         0.0000
     26 H3          2.0407   -3.5019   10.5034 H         1 <0>         0.0000
     27 H4          2.8236   -4.7591    6.4570 H         1 <0>         0.0000
     28 H5         -4.3764    4.2092    0.3452 H         1 <0>         0.0000
     29 H6         -5.3650    3.2137   -0.7256 H         1 <0>         0.0000
     30 H7         -4.9604    2.6385    0.9059 H         1 <0>         0.0000
     31 H8         -2.5401    4.3441   -1.4288 H         1 <0>         0.0000
     32 H9         -3.5004    3.3505   -2.5268 H         1 <0>         0.0000
     33 H10        -1.8438    2.8672   -2.1048 H         1 <0>         0.0000
     34 H11        -0.1531    0.5335    1.9082 H         1 <0>         0.0000
     35 H12         0.7975    1.7493    1.0822 H         1 <0>         0.0000
     36 H13        -1.6176    0.2727   -0.0585 H         1 <0>         0.0000
     37 H14        -0.7009    1.4813   -0.9501 H         1 <0>         0.0000
     38 H15         2.9484    0.3859    1.4229 H         1 <0>         0.0000
     39 H16         0.5915   -1.2082    0.2610 H         1 <0>         0.0000
     40 H17        -3.5264    1.5088   -0.8227 H         1 <0>         0.0000
     41 H18         0.8845    0.1717   -1.5934 H         1 <0>         0.0000
     42 H19         2.2416   -0.6802   -1.2969 H         1 <0>         0.0000
     43 H20         2.0849   -0.4638    5.5841 H         1 <0>         0.0000
     44 H21         3.6858   -0.1599    3.4266 H         1 <0>         0.0000
     45 H22         2.7041   -2.3378    0.6655 H         1 <0>         0.0000
@<TRIPOS>BOND
     1    1    2 ar
     2    1    3 ar
     3    2    5 ar
     4    3    6 ar
     5    4    5 ar
     6    4    6 ar
     7    5    7 1
     8    6   23 1
     9    7   17 am
    10    7   19 2
    11    8   13 1
    12    8   18 am
    13    8   20 2
    14    9   15 1
    15   10   15 1
    16   11   12 1
    17   11   14 1
    18   12   22 1
    19   13   14 1
    20   13   21 1
    21   14   16 1
    22   15   22 1
    23   17   18 1
    24    1   24 1
    25    2   25 1
    26    3   26 1
    27    4   27 1
    28    9   28 1
    29    9   29 1
    30    9   30 1
    31   10   31 1
    32   10   32 1
    33   10   33 1
    34   11   34 1
    35   11   35 1
    36   12   36 1
    37   12   37 1
    38   13   38 1
    39   14   39 1
    40   15   40 1
    41   16   41 1
    42   16   42 1
    43   17   43 1
    44   18   44 1
    45   21   45 1
@<TRIPOS>MOLECULE
LIGAND
   45    45     0     0     0
SMALL
NO_CHARGES

@<TRIPOS>ATOM
      1 C1          3.3047   -0.8664    9.7081 C.ar      1 <0>         0.0000
      2 C2          3.6057   -0.4258    8.4194 C.ar      1 <0>         0.0000
      3 C3          2.1622   -1.6344    9.9335 C.ar      1 <0>         0.0000
      4 C4          1.6219   -1.5209    7.5815 C.ar      1 <0>         0.0000
      5 C5          2.7643   -0.7530    7.3561 C.ar      1 <0>         0.0000
      6 C6          1.3208   -1.9616    8.8702 C.ar      1 <0>         0.0000
      7 C7          3.0854   -0.2826    5.9837 C.2       1 <0>         0.0000
      8 C8          1.9325   -1.0133    2.6768 C.2       1 <0>         0.0000
      9 C9         -4.2967    1.3927   -0.3375 C.3       1 <0>         0.0000
     10 C10        -4.0071    3.8901   -0.4781 C.3       1 <0>         0.0000
     11 C11         0.2195    0.8307    0.9188 C.3       1 <0>         0.0000
     12 C12        -1.0001    1.1700    0.0549 C.3       1 <0>         0.0000
     13 C13         2.3649   -0.5352    1.2935 C.3       1 <0>         0.0000
     14 C14         1.1534   -0.2750    0.3710 C.3       1 <0>         0.0000
     15 C15        -3.3066    2.5373   -0.5169 C.3       1 <0>         0.0000
     16 N1          1.6681    0.0834   -0.9557 N.3       1 <0>         0.0000
     17 N2          2.6023   -1.0670    4.9540 N.am      1 <0>         0.0000
     18 N3          2.8469   -0.6810    3.6590 N.am      1 <0>         0.0000
     19 O1          3.7293    0.7533    5.8374 O.2       1 <0>         0.0000
     20 O2          0.8915   -1.6405    2.8632 O.2       1 <0>         0.0000
     21 O3          3.2186   -1.5159    0.7230 O.3       1 <0>         0.0000
     22 S1         -2.0492    2.4644    0.7791 S.3       1 <0>         0.0000
     23 Cl1        -0.0884   -2.9097    9.1490 Cl        1 <0>         0.0000
     24 H1          3.9601   -0.6118   10.5358 H         1 <0>         0.0000
     25 H2          4.4987    0.1721    8.2563 H         1 <0>         0.0000
     26 H3          1.9405   -1.9706   10.9431 H         1 <0>         0.0000
     27 H4          0.9676   -1.7751    6.7500 H         1 <0>         0.0000
     28 H5         -4.8186    1.4878    0.6213 H         1 <0>         0.0000
     29 H6         -5.0586    1.3975   -1.1249 H         1 <0>         0.0000
     30 H7         -3.7990    0.4164   -0.3457 H         1 <0>         0.0000
     31 H8         -4.5245    4.0235    0.4785 H         1 <0>         0.0000
     32 H9         -4.7599    3.9723   -1.2700 H         1 <0>         0.0000
     33 H10        -3.2998    4.7201   -0.5881 H         1 <0>         0.0000
     34 H11        -0.1531    0.5335    1.9082 H         1 <0>         0.0000
     35 H12         0.7975    1.7493    1.0822 H         1 <0>         0.0000
     36 H13        -1.6176    0.2727   -0.0585 H         1 <0>         0.0000
     37 H14        -0.7009    1.4813   -0.9501 H         1 <0>         0.0000
     38 H15         2.9484    0.3859    1.4229 H         1 <0>         0.0000
     39 H16         0.5915   -1.2082    0.2610 H         1 <0>         0.0000
     40 H17        -2.7965    2.4239   -1.4795 H         1 <0>         0.0000
     41 H18         0.8845    0.1717   -1.5934 H         1 <0>         0.0000
     42 H19         2.2416   -0.6802   -1.2969 H         1 <0>         0.0000
     43 H20         2.0769   -1.9119    5.1509 H         1 <0>         0.0000
     44 H21         3.6858   -0.1599    3.4266 H         1 <0>         0.0000
     45 H22         2.7041   -2.3378    0.6655 H         1 <0>         0.0000
@<TRIPOS>BOND
     1    1    2 ar
     2    1    3 ar
     3    2    5 ar
     4    3    6 ar
     5    4    5 ar
     6    4    6 ar
     7    5    7 1
     8    6   23 1
     9    7   17 am
    10    7   19 2
    11    8   13 1
    12    8   18 am
    13    8   20 2
    14    9   15 1
    15   10   15 1
    16   11   12 1
    17   11   14 1
    18   12   22 1
    19   13   14 1
    20   13   21 1
    21   14   16 1
    22   15   22 1
    23   17   18 1
    24    1   24 1
    25    2   25 1
    26    3   26 1
    27    4   27 1
    28    9   28 1
    29    9   29 1
    30    9   30 1
    31   10   31 1
    32   10   32 1
    33   10   33 1
    34   11   34 1
    35   11   35 1
    36   12   36 1
    37   12   37 1
    38   13   38 1
    39   14   39 1
    40   15   40 1
    41   16   41 1
    42   16   42 1
    43   17   43 1
    44   18   44 1
    45   21   45 1
@<TRIPOS>MOLECULE
LIGAND
   45    45     0     0     0
SMALL
NO_CHARGES

@<TRIPOS>ATOM
      1 C1         -2.1326   -2.6043    7.7561 C.ar      1 <0>         0.0000
      2 C2         -1.7551   -2.3302    6.4416 C.ar      1 <0>         0.0000
      3 C3         -1.6491   -1.8151    8.7997 C.ar      1 <0>         0.0000
      4 C4         -0.4104   -0.4776    7.2142 C.ar      1 <0>         0.0000
      5 C5         -0.8940   -1.2668    6.1707 C.ar      1 <0>         0.0000
      6 C6         -0.7879   -0.7518    8.5287 C.ar      1 <0>         0.0000
      7 C7         -0.4919   -0.9759    4.7701 C.2       1 <0>         0.0000
      8 C8          1.9325   -1.0133    2.6768 C.2       1 <0>         0.0000
      9 C9          0.1128    3.4388   -3.4370 C.3       1 <0>         0.0000
     10 C10        -0.1648    4.3761   -1.1165 C.3       1 <0>         0.0000
     11 C11         1.5761    0.1765   -1.0474 C.3       1 <0>         0.0000
     12 C12         0.4360    0.4372   -2.0380 C.3       1 <0>         0.0000
     13 C13         2.3649   -0.5352    1.2935 C.3       1 <0>         0.0000
     14 C14         1.1534   -0.2750    0.3710 C.3       1 <0>         0.0000
     15 C15         0.2674    3.1720   -1.9445 C.3       1 <0>         0.0000
     16 N1          0.3597   -1.5080    0.3138 N.3       1 <0>         0.0000
     17 N2          0.7320   -0.3536    4.6161 N.am      1 <0>         0.0000
     18 N3          1.1743   -0.0714    3.3469 N.am      1 <0>         0.0000
     19 O1         -1.2351   -1.3059    3.8493 O.2       1 <0>         0.0000
     20 O2          2.2555   -2.1109    3.1269 O.2       1 <0>         0.0000
     21 O3          3.2186   -1.5159    0.7230 O.3       1 <0>         0.0000
     22 S1         -0.7139    1.7277   -1.4786 S.3       1 <0>         0.0000
     23 Cl1        -0.1920    0.2220    9.8169 Cl        1 <0>         0.0000
     24 H1         -2.8034   -3.4321    7.9668 H         1 <0>         0.0000
     25 H2         -2.1385   -2.9523    5.6369 H         1 <0>         0.0000
     26 H3         -1.9519   -2.0407    9.8189 H         1 <0>         0.0000
     27 H4          0.2608    0.3516    6.9998 H         1 <0>         0.0000
     28 H5         -0.9313    3.6698   -3.6761 H         1 <0>         0.0000
     29 H6          0.7168    4.2965   -3.7534 H         1 <0>         0.0000
     30 H7          0.4041    2.5712   -4.0399 H         1 <0>         0.0000
     31 H8         -1.2132    4.6215   -1.3199 H         1 <0>         0.0000
     32 H9          0.4307    5.2627   -1.3609 H         1 <0>         0.0000
     33 H10        -0.0742    4.1863   -0.0408 H         1 <0>         0.0000
     34 H11         2.1631    1.1018   -0.9736 H         1 <0>         0.0000
     35 H12         2.2520   -0.5707   -1.4824 H         1 <0>         0.0000
     36 H13        -0.1421   -0.4839   -2.1668 H         1 <0>         0.0000
     37 H14         0.8216    0.7132   -3.0237 H         1 <0>         0.0000
     38 H15         2.9484    0.3859    1.4229 H         1 <0>         0.0000
     39 H16         0.5249    0.4957    0.8291 H         1 <0>         0.0000
     40 H17         1.3162    2.9436   -1.7268 H         1 <0>         0.0000
     41 H18        -0.4842   -1.3249   -0.2178 H         1 <0>         0.0000
     42 H19         0.0690   -1.7492    1.2550 H         1 <0>         0.0000
     43 H20         1.2931   -0.1098    5.4249 H         1 <0>         0.0000
     44 H21         0.9480    0.8148    2.9078 H         1 <0>         0.0000
     45 H22         2.7041   -2.3378    0.6655 H         1 <0>         0.0000
@<TRIPOS>BOND
     1    1    2 ar
     2    1    3 ar
     3    2    5 ar
     4    3    6 ar
     5    4    5 ar
     6    4    6 ar
     7    5    7 1
     8    6   23 1
     9    7   17 am
    10    7   19 2
    11    8   13 1
    12    8   18 am
    13    8   20 2
    14    9   15 1
    15   10   15 1
    16   11   12 1
    17   11   14 1
    18   12   22 1
    19   13   14 1
    20   13   21 1
    21   14   16 1
    22   15   22 1
    23   17   18 1
    24    1   24 1
    25    2   25 1
    26    3   26 1
    27    4   27 1
    28    9   28 1
    29    9   29 1
    30    9   30 1
    31   10   31 1
    32   10   32 1
    33   10   33 1
    34   11   34 1
    35   11   35 1
    36   12   36 1
    37   12   37 1
    38   13   38 1
    39   14   39 1
    40   15   40 1
    41   16   41 1
    42   16   42 1
    43   17   43 1
    44   18   44 1
    45   21   45 1
@<TRIPOS>MOLECULE
LIGAND
   45    45     0     0     0
SMALL
NO_CHARGES

@<TRIPOS>ATOM
      1 C1         -0.9798   -3.8905    7.4752 C.ar      1 <0>         0.0000
      2 C2         -0.5605   -3.3589    6.2557 C.ar      1 <0>         0.0000
      3 C3         -1.7949   -5.0223    7.4994 C.ar      1 <0>         0.0000
      4 C4         -1.7714   -5.0908    5.0845 C.ar      1 <0>         0.0000
      5 C5         -0.9563   -3.9590    5.0604 C.ar      1 <0>         0.0000
      6 C6         -2.1907   -5.6224    6.3041 C.ar      1 <0>         0.0000
      7 C7         -0.5097   -3.3917    3.7617 C.2       1 <0>         0.0000
      8 C8          1.9325   -1.0133    2.6768 C.2       1 <0>         0.0000
      9 C9         -2.8396    0.6809   -2.6742 C.3       1 <0>         0.0000
     10 C10        -4.6560   -0.1960   -1.1670 C.3       1 <0>         0.0000
     11 C11         0.2195    0.8307    0.9188 C.3       1 <0>         0.0000
     12 C12        -1.0001    1.1700    0.0549 C.3       1 <0>         0.0000
     13 C13         2.3649   -0.5352    1.2935 C.3       1 <0>         0.0000
     14 C14         1.1534   -0.2750    0.3710 C.3       1 <0>         0.0000
     15 C15        -3.3416    0.5718   -1.2395 C.3       1 <0>         0.0000
     16 N1          1.6681    0.0834   -0.9557 N.3       1 <0>         0.0000
     17 N2          0.6851   -2.6985    3.7909 N.am      1 <0>         0.0000
     18 N3          1.1665   -2.1628    2.6216 N.am      1 <0>         0.0000
     19 O1         -1.1937   -3.5743    2.7577 O.2       1 <0>         0.0000
     20 O2          2.2299   -0.4108    3.7066 O.2       1 <0>         0.0000
     21 O3          3.2186   -1.5159    0.7230 O.3       1 <0>         0.0000
     22 S1         -2.0977   -0.2515   -0.2193 S.3       1 <0>         0.0000
     23 Cl1        -3.1960   -7.0191    6.3347 Cl        1 <0>         0.0000
     24 H1         -0.6713   -3.4233    8.4058 H         1 <0>         0.0000
     25 H2          0.0744   -2.4766    6.2497 H         1 <0>         0.0000
     26 H3         -2.1137   -5.4252    8.4572 H         1 <0>         0.0000
     27 H4         -2.0782   -5.5571    4.1505 H         1 <0>         0.0000
     28 H5         -2.6847   -0.3167   -3.1002 H         1 <0>         0.0000
     29 H6         -3.5648    1.1984   -3.3121 H         1 <0>         0.0000
     30 H7         -1.8850    1.2160   -2.7338 H         1 <0>         0.0000
     31 H8         -4.5291   -1.2071   -1.5698 H         1 <0>         0.0000
     32 H9         -5.4375    0.2943   -1.7580 H         1 <0>         0.0000
     33 H10        -5.0153   -0.2952   -0.1363 H         1 <0>         0.0000
     34 H11        -0.1531    0.5335    1.9082 H         1 <0>         0.0000
     35 H12         0.7975    1.7493    1.0822 H         1 <0>         0.0000
     36 H13        -0.6573    1.5138   -0.9268 H         1 <0>         0.0000
     37 H14        -1.5832    1.9849    0.4933 H         1 <0>         0.0000
     38 H15         2.9484    0.3859    1.4229 H         1 <0>         0.0000
     39 H16         0.5915   -1.2082    0.2610 H         1 <0>         0.0000
     40 H17        -3.4899    1.5778   -0.8328 H         1 <0>         0.0000
     41 H18         0.8845    0.1717   -1.5934 H         1 <0>         0.0000
     42 H19         2.2416   -0.6802   -1.2969 H         1 <0>         0.0000
     43 H20         1.1968   -2.5873    4.6594 H         1 <0>         0.0000
     44 H21         0.9630   -2.6038    1.7309 H         1 <0>         0.0000
     45 H22         2.7041   -2.3378    0.6655 H         1 <0>         0.0000
@<TRIPOS>BOND
     1    1    2 ar
     2    1    3 ar
     3    2    5 ar
     4    3    6 ar
     5    4    5 ar
     6    4    6 ar
     7    5    7 1
     8    6   23 1
     9    7   17 am
    10    7   19 2
    11    8   13 1
    12    8   18 am
    13    8   20 2
    14    9   15 1
    15   10   15 1
    16   11   12 1
    17   11   14 1
    18   12   22 1
    19   13   14 1
    20   13   21 1
    21   14   16 1
    22   15   22 1
    23   17   18 1
    24    1   24 1
    25    2   25 1
    26    3   26 1
    27    4   27 1
    28    9   28 1
    29    9   29 1
    30    9   30 1
    31   10   31 1
    32   10   32 1
    33   10   33 1
    34   11   34 1
    35   11   35 1
    36   12   36 1
    37   12   37 1
    38   13   38 1
    39   14   39 1
    40   15   40 1
    41   16   41 1
    42   16   42 1
    43   17   43 1
    44   18   44 1
    45   21   45 1
@<TRIPOS>MOLECULE
LIGAND
   45    45     0     0     0
SMALL
NO_CHARGES

@<TRIPOS>ATOM
      1 C1          1.7949   -2.7138    8.7492 C.ar      1 <0>         0.0000
      2 C2          2.1171   -2.3438    7.4435 C.ar      1 <0>         0.0000
      3 C3          2.6888   -2.4547    9.7883 C.ar      1 <0>         0.0000
      4 C4          4.2272   -1.4558    8.2158 C.ar      1 <0>         0.0000
      5 C5          3.3333   -1.7148    7.1768 C.ar      1 <0>         0.0000
      6 C6          3.9049   -1.8257    9.5216 C.ar      1 <0>         0.0000
      7 C7          3.6760   -1.3216    5.7855 C.2       1 <0>         0.0000
      8 C8          1.9325   -1.0133    2.6768 C.2       1 <0>         0.0000
      9 C9         -2.0930    0.1515   -2.9182 C.3       1 <0>         0.0000
     10 C10        -4.3052   -0.3408   -1.8209 C.3       1 <0>         0.0000
     11 C11         0.2195    0.8307    0.9188 C.3       1 <0>         0.0000
     12 C12        -1.0001    1.1700    0.0549 C.3       1 <0>         0.0000
     13 C13         2.3649   -0.5352    1.2935 C.3       1 <0>         0.0000
     14 C14         1.1534   -0.2750    0.3710 C.3       1 <0>         0.0000
     15 C15        -2.9606    0.3632   -1.6834 C.3       1 <0>         0.0000
     16 N1          1.6681    0.0834   -0.9557 N.3       1 <0>         0.0000
     17 N2          2.6023   -1.0670    4.9540 N.am      1 <0>         0.0000
     18 N3          2.8469   -0.6810    3.6590 N.am      1 <0>         0.0000
     19 O1          4.8567   -1.2304    5.4589 O.2       1 <0>         0.0000
     20 O2          0.8915   -1.6405    2.8632 O.2       1 <0>         0.0000
     21 O3          3.2186   -1.5159    0.7230 O.3       1 <0>         0.0000
     22 S1         -2.0977   -0.2515   -0.2193 S.3       1 <0>         0.0000
     23 Cl1         5.0072   -1.5059   10.8043 Cl        1 <0>         0.0000
     24 H1          0.8479   -3.2031    8.9567 H         1 <0>         0.0000
     25 H2          1.4125   -2.5511    6.6423 H         1 <0>         0.0000
     26 H3          2.4241   -2.7487   10.8007 H         1 <0>         0.0000
     27 H4          5.1749   -0.9645    8.0049 H         1 <0>         0.0000
     28 H5         -1.9123   -0.9173   -3.0778 H         1 <0>         0.0000
     29 H6         -2.5817    0.5374   -3.8198 H         1 <0>         0.0000
     30 H7         -1.1164    0.6393   -2.8203 H         1 <0>         0.0000
     31 H8         -4.1585   -1.4173   -1.9636 H         1 <0>         0.0000
     32 H9         -4.8626    0.0299   -2.6884 H         1 <0>         0.0000
     33 H10        -4.9288   -0.2091   -0.9293 H         1 <0>         0.0000
     34 H11        -0.1531    0.5335    1.9082 H         1 <0>         0.0000
     35 H12         0.7975    1.7493    1.0822 H         1 <0>         0.0000
     36 H13        -0.6573    1.5138   -0.9268 H         1 <0>         0.0000
     37 H14        -1.5832    1.9849    0.4933 H         1 <0>         0.0000
     38 H15         2.9484    0.3859    1.4229 H         1 <0>         0.0000
     39 H16         0.5915   -1.2082    0.2610 H         1 <0>         0.0000
     40 H17        -3.1292    1.4361   -1.5418 H         1 <0>         0.0000
     41 H18         0.8845    0.1717   -1.5934 H         1 <0>         0.0000
     42 H19         2.2416   -0.6802   -1.2969 H         1 <0>         0.0000
     43 H20         1.6516   -1.1634    5.2936 H         1 <0>         0.0000
     44 H21         3.6858   -0.1599    3.4266 H         1 <0>         0.0000
     45 H22         2.7041   -2.3378    0.6655 H         1 <0>         0.0000
@<TRIPOS>BOND
     1    1    2 ar
     2    1    3 ar
     3    2    5 ar
     4    3    6 ar
     5    4    5 ar
     6    4    6 ar
     7    5    7 1
     8    6   23 1
     9    7   17 am
    10    7   19 2
    11    8   13 1
    12    8   18 am
    13    8   20 2
    14    9   15 1
    15   10   15 1
    16   11   12 1
    17   11   14 1
    18   12   22 1
    19   13   14 1
    20   13   21 1
    21   14   16 1
    22   15   22 1
    23   17   18 1
    24    1   24 1
    25    2   25 1
    26    3   26 1
    27    4   27 1
    28    9   28 1
    29    9   29 1
    30    9   30 1
    31   10   31 1
    32   10   32 1
    33   10   33 1
    34   11   34 1
    35   11   35 1
    36   12   36 1
    37   12   37 1
    38   13   38 1
    39   14   39 1
    40   15   40 1
    41   16   41 1
    42   16   42 1
    43   17   43 1
    44   18   44 1
    45   21   45 1
@<TRIPOS>MOLECULE
LIGAND
   45    45     0     0     0
SMALL
NO_CHARGES

@<TRIPOS>ATOM
      1 C1         -0.2959   -1.7283    8.4655 C.ar      1 <0>         0.0000
      2 C2          0.0807   -1.4558    7.1504 C.ar      1 <0>         0.0000
      3 C3         -1.6473   -1.8121    8.8008 C.ar      1 <0>         0.0000
      4 C4         -2.2454   -1.3505    6.5060 C.ar      1 <0>         0.0000
      5 C5         -0.8940   -1.2668    6.1707 C.ar      1 <0>         0.0000
      6 C6         -2.6221   -1.6232    7.8211 C.ar      1 <0>         0.0000
      7 C7         -0.4919   -0.9759    4.7701 C.2       1 <0>         0.0000
      8 C8          1.9325   -1.0133    2.6768 C.2       1 <0>         0.0000
      9 C9         -0.7661    4.0842   -1.5067 C.3       1 <0>         0.0000
     10 C10         1.2631    3.9522   -2.9918 C.3       1 <0>         0.0000
     11 C11         1.5761    0.1765   -1.0474 C.3       1 <0>         0.0000
     12 C12         2.3784    1.4800   -1.1273 C.3       1 <0>         0.0000
     13 C13         2.3649   -0.5352    1.2935 C.3       1 <0>         0.0000
     14 C14         1.1534   -0.2750    0.3710 C.3       1 <0>         0.0000
     15 C15         0.4393    3.2484   -1.9202 C.3       1 <0>         0.0000
     16 N1          0.3597   -1.5080    0.3138 N.3       1 <0>         0.0000
     17 N2          0.7320   -0.3536    4.6161 N.am      1 <0>         0.0000
     18 N3          1.1743   -0.0714    3.3469 N.am      1 <0>         0.0000
     19 O1         -1.2351   -1.3059    3.8493 O.2       1 <0>         0.0000
     20 O2          2.2555   -2.1109    3.1269 O.2       1 <0>         0.0000
     21 O3          3.2186   -1.5159    0.7230 O.3       1 <0>         0.0000
     22 S1          1.4741    2.9151   -0.4766 S.3       1 <0>         0.0000
     23 Cl1        -4.2894   -1.7271    8.2355 Cl        1 <0>         0.0000
     24 H1          0.4631   -1.8757    9.2280 H         1 <0>         0.0000
     25 H2          1.1369   -1.3929    6.9013 H         1 <0>         0.0000
     26 H3         -1.9258   -2.0251    9.8297 H         1 <0>         0.0000
     27 H4         -3.0036   -1.2033    5.7395 H         1 <0>         0.0000
     28 H5         -0.4402    5.0542   -1.1149 H         1 <0>         0.0000
     29 H6         -1.4254    4.2821   -2.3592 H         1 <0>         0.0000
     30 H7         -1.3544    3.5937   -0.7229 H         1 <0>         0.0000
     31 H8          1.6202    4.9203   -2.6228 H         1 <0>         0.0000
     32 H9          0.6667    4.1459   -3.8903 H         1 <0>         0.0000
     33 H10         2.1426    3.3661   -3.2821 H         1 <0>         0.0000
     34 H11         2.1843   -0.6108   -1.5125 H         1 <0>         0.0000
     35 H12         0.6847    0.2765   -1.6798 H         1 <0>         0.0000
     36 H13         2.6151    1.6893   -2.1758 H         1 <0>         0.0000
     37 H14         3.3304    1.3937   -0.5957 H         1 <0>         0.0000
     38 H15         2.9484    0.3859    1.4229 H         1 <0>         0.0000
     39 H16         0.5249    0.4957    0.8291 H         1 <0>         0.0000
     40 H17         0.0926    2.2847   -2.3082 H         1 <0>         0.0000
     41 H18        -0.4842   -1.3249   -0.2178 H         1 <0>         0.0000
     42 H19         0.0690   -1.7492    1.2550 H         1 <0>         0.0000
     43 H20         1.2931   -0.1098    5.4249 H         1 <0>         0.0000
     44 H21         0.9480    0.8148    2.9078 H         1 <0>         0.0000
     45 H22         2.7041   -2.3378    0.6655 H         1 <0>         0.0000
@<TRIPOS>BOND
     1    1    2 ar
     2    1    3 ar
     3    2    5 ar
     4    3    6 ar
     5    4    5 ar
     6    4    6 ar
     7    5    7 1
     8    6   23 1
     9    7   17 am
    10    7   19 2
    11    8   13 1
    12    8   18 am
    13    8   20 2
    14    9   15 1
    15   10   15 1
    16   11   12 1
    17   11   14 1
    18   12   22 1
    19   13   14 1
    20   13   21 1
    21   14   16 1
    22   15   22 1
    23   17   18 1
    24    1   24 1
    25    2   25 1
    26    3   26 1
    27    4   27 1
    28    9   28 1
    29    9   29 1
    30    9   30 1
    31   10   31 1
    32   10   32 1
    33   10   33 1
    34   11   34 1
    35   11   35 1
    36   12   36 1
    37   12   37 1
    38   13   38 1
    39   14   39 1
    40   15   40 1
    41   16   41 1
    42   16   42 1
    43   17   43 1
    44   18   44 1
    45   21   45 1
@<TRIPOS>MOLECULE
LIGAND
   45    45     0     0     0
SMALL
NO_CHARGES

@<TRIPOS>ATOM
      1 C1          3.3674   -3.8174    8.8247 C.ar      1 <0>         0.0000
      2 C2          3.6347   -3.4983    7.4934 C.ar      1 <0>         0.0000
      3 C3          2.2539   -3.2710    9.4629 C.ar      1 <0>         0.0000
      4 C4          1.6751   -2.0863    7.4384 C.ar      1 <0>         0.0000
      5 C5          2.7886   -2.6327    6.8003 C.ar      1 <0>         0.0000
      6 C6          1.4078   -2.4054    8.7697 C.ar      1 <0>         0.0000
      7 C7          3.0744   -2.2928    5.3823 C.2       1 <0>         0.0000
      8 C8          1.9325   -1.0133    2.6768 C.2       1 <0>         0.0000
      9 C9         -4.5752    3.1779    0.0331 C.3       1 <0>         0.0000
     10 C10        -2.7668    3.3107   -1.7140 C.3       1 <0>         0.0000
     11 C11         0.2195    0.8307    0.9188 C.3       1 <0>         0.0000
     12 C12        -1.0001    1.1700    0.0549 C.3       1 <0>         0.0000
     13 C13         2.3649   -0.5352    1.2935 C.3       1 <0>         0.0000
     14 C14         1.1534   -0.2750    0.3710 C.3       1 <0>         0.0000
     15 C15        -3.3066    2.5373   -0.5169 C.3       1 <0>         0.0000
     16 N1          1.6681    0.0834   -0.9557 N.3       1 <0>         0.0000
     17 N2          2.6023   -1.0670    4.9540 N.am      1 <0>         0.0000
     18 N3          2.8469   -0.6810    3.6590 N.am      1 <0>         0.0000
     19 O1          3.7083   -3.0847    4.6892 O.2       1 <0>         0.0000
     20 O2          0.8915   -1.6405    2.8632 O.2       1 <0>         0.0000
     21 O3          3.2186   -1.5159    0.7230 O.3       1 <0>         0.0000
     22 S1         -2.0492    2.4644    0.7791 S.3       1 <0>         0.0000
     23 Cl1         0.0337   -1.7319    9.5577 Cl        1 <0>         0.0000
     24 H1          4.0262   -4.4916    9.3641 H         1 <0>         0.0000
     25 H2          4.5055   -3.9303    7.0070 H         1 <0>         0.0000
     26 H3          2.0583   -3.5288   10.5005 H         1 <0>         0.0000
     27 H4          1.0164   -1.4117    6.8951 H         1 <0>         0.0000
     28 H5         -4.3764    4.2092    0.3452 H         1 <0>         0.0000
     29 H6         -5.3650    3.2137   -0.7256 H         1 <0>         0.0000
     30 H7         -4.9604    2.6385    0.9059 H         1 <0>         0.0000
     31 H8         -2.5401    4.3441   -1.4288 H         1 <0>         0.0000
     32 H9         -3.5004    3.3505   -2.5268 H         1 <0>         0.0000
     33 H10        -1.8438    2.8672   -2.1048 H         1 <0>         0.0000
     34 H11        -0.1531    0.5335    1.9082 H         1 <0>         0.0000
     35 H12         0.7975    1.7493    1.0822 H         1 <0>         0.0000
     36 H13        -1.6176    0.2727   -0.0585 H         1 <0>         0.0000
     37 H14        -0.7009    1.4813   -0.9501 H         1 <0>         0.0000
     38 H15         2.9484    0.3859    1.4229 H         1 <0>         0.0000
     39 H16         0.5915   -1.2082    0.2610 H         1 <0>         0.0000
     40 H17        -3.5264    1.5088   -0.8227 H         1 <0>         0.0000
     41 H18         0.8845    0.1717   -1.5934 H         1 <0>         0.0000
     42 H19         2.2416   -0.6802   -1.2969 H         1 <0>         0.0000
     43 H20         2.0849   -0.4638    5.5841 H         1 <0>         0.0000
     44 H21         3.6858   -0.1599    3.4266 H         1 <0>         0.0000
     45 H22         2.7041   -2.3378    0.6655 H         1 <0>         0.0000
@<TRIPOS>BOND
     1    1    2 ar
     2    1    3 ar
     3    2    5 ar
     4    3    6 ar
     5    4    5 ar
     6    4    6 ar
     7    5    7 1
     8    6   23 1
     9    7   17 am
    10    7   19 2
    11    8   13 1
    12    8   18 am
    13    8   20 2
    14    9   15 1
    15   10   15 1
    16   11   12 1
    17   11   14 1
    18   12   22 1
    19   13   14 1
    20   13   21 1
    21   14   16 1
    22   15   22 1
    23   17   18 1
    24    1   24 1
    25    2   25 1
    26    3   26 1
    27    4   27 1
    28    9   28 1
    29    9   29 1
    30    9   30 1
    31   10   31 1
    32   10   32 1
    33   10   33 1
    34   11   34 1
    35   11   35 1
    36   12   36 1
    37   12   37 1
    38   13   38 1
    39   14   39 1
    40   15   40 1
    41   16   41 1
    42   16   42 1
    43   17   43 1
    44   18   44 1
    45   21   45 1
@<TRIPOS>MOLECULE
LIGAND
   45    45     0     0     0
SMALL
NO_CHARGES

@<TRIPOS>ATOM
      1 C1         -1.1840   -1.2026    8.2729 C.ar      1 <0>         0.0000
      2 C2         -0.7155   -0.8444    7.0089 C.ar      1 <0>         0.0000
      3 C3         -0.8839   -0.4077    9.3791 C.ar      1 <0>         0.0000
      4 C4          0.3533    1.1038    7.9573 C.ar      1 <0>         0.0000
      5 C5          0.0532    0.3088    6.8511 C.ar      1 <0>         0.0000
      6 C6         -0.1152    0.7455    9.2213 C.ar      1 <0>         0.0000
      7 C7          0.5524    0.6894    5.5043 C.2       1 <0>         0.0000
      8 C8          1.9325   -1.0133    2.6768 C.2       1 <0>         0.0000
      9 C9          3.3218    4.6503   -1.4873 C.3       1 <0>         0.0000
     10 C10         2.5201    5.0479    0.8663 C.3       1 <0>         0.0000
     11 C11         1.5761    0.1765   -1.0474 C.3       1 <0>         0.0000
     12 C12         2.3784    1.4800   -1.1273 C.3       1 <0>         0.0000
     13 C13         2.3649   -0.5352    1.2935 C.3       1 <0>         0.0000
     14 C14         1.1534   -0.2750    0.3710 C.3       1 <0>         0.0000
     15 C15         2.8874    4.0013   -0.1787 C.3       1 <0>         0.0000
     16 N1          0.3597   -1.5080    0.3138 N.3       1 <0>         0.0000
     17 N2          0.7320   -0.3536    4.6161 N.am      1 <0>         0.0000
     18 N3          1.1743   -0.0714    3.3469 N.am      1 <0>         0.0000
     19 O1          0.7587    1.8736    5.2510 O.2       1 <0>         0.0000
     20 O2          2.2555   -2.1109    3.1269 O.2       1 <0>         0.0000
     21 O3          3.2186   -1.5159    0.7230 O.3       1 <0>         0.0000
     22 S1          1.4741    2.9151   -0.4766 S.3       1 <0>         0.0000
     23 Cl1         0.2544    1.7262   10.5866 Cl        1 <0>         0.0000
     24 H1         -1.7827   -2.1003    8.3955 H         1 <0>         0.0000
     25 H2         -0.9559   -1.4719    6.1545 H         1 <0>         0.0000
     26 H3         -1.2558   -0.6995   10.3579 H         1 <0>         0.0000
     27 H4          0.9528    2.0032    7.8311 H         1 <0>         0.0000
     28 H5          2.5159    5.2753   -1.8880 H         1 <0>         0.0000
     29 H6          4.1939    5.2975   -1.3412 H         1 <0>         0.0000
     30 H7          3.5704    3.9045   -2.2509 H         1 <0>         0.0000
     31 H8          1.7019    5.6790    0.5018 H         1 <0>         0.0000
     32 H9          3.3673    5.7072    1.0854 H         1 <0>         0.0000
     33 H10         2.1889    4.5896    1.8052 H         1 <0>         0.0000
     34 H11         2.1843   -0.6108   -1.5125 H         1 <0>         0.0000
     35 H12         0.6847    0.2765   -1.6798 H         1 <0>         0.0000
     36 H13         2.6151    1.6893   -2.1758 H         1 <0>         0.0000
     37 H14         3.3304    1.3937   -0.5957 H         1 <0>         0.0000
     38 H15         2.9484    0.3859    1.4229 H         1 <0>         0.0000
     39 H16         0.5249    0.4957    0.8291 H         1 <0>         0.0000
     40 H17         3.7055    3.3821    0.2046 H         1 <0>         0.0000
     41 H18        -0.4842   -1.3249   -0.2178 H         1 <0>         0.0000
     42 H19         0.0690   -1.7492    1.2550 H         1 <0>         0.0000
     43 H20         0.5409   -1.3094    4.8961 H         1 <0>         0.0000
     44 H21         0.9480    0.8148    2.9078 H         1 <0>         0.0000
     45 H22         2.7041   -2.3378    0.6655 H         1 <0>         0.0000
@<TRIPOS>BOND
     1    1    2 ar
     2    1    3 ar
     3    2    5 ar
     4    3    6 ar
     5    4    5 ar
     6    4    6 ar
     7    5    7 1
     8    6   23 1
     9    7   17 am
    10    7   19 2
    11    8   13 1
    12    8   18 am
    13    8   20 2
    14    9   15 1
    15   10   15 1
    16   11   12 1
    17   11   14 1
    18   12   22 1
    19   13   14 1
    20   13   21 1
    21   14   16 1
    22   15   22 1
    23   17   18 1
    24    1   24 1
    25    2   25 1
    26    3   26 1
    27    4   27 1
    28    9   28 1
    29    9   29 1
    30    9   30 1
    31   10   31 1
    32   10   32 1
    33   10   33 1
    34   11   34 1
    35   11   35 1
    36   12   36 1
    37   12   37 1
    38   13   38 1
    39   14   39 1
    40   15   40 1
    41   16   41 1
    42   16   42 1
    43   17   43 1
    44   18   44 1
    45   21   45 1
@<TRIPOS>MOLECULE
LIGAND
   45    45     0     0     0
SMALL
NO_CHARGES

@<TRIPOS>ATOM
      1 C1         -0.2040   -0.8100    8.7149 C.ar      1 <0>         0.0000
      2 C2          0.2189   -0.4746    7.4288 C.ar      1 <0>         0.0000
      3 C3          0.5641   -0.4423    9.8197 C.ar      1 <0>         0.0000
      4 C4          2.1781    0.5960    8.3521 C.ar      1 <0>         0.0000
      5 C5          1.4099    0.2284    7.2473 C.ar      1 <0>         0.0000
      6 C6          1.7552    0.2607    9.6383 C.ar      1 <0>         0.0000
      7 C7          1.8600    0.5847    5.8768 C.2       1 <0>         0.0000
      8 C8          1.9325   -1.0133    2.6768 C.2       1 <0>         0.0000
      9 C9         -4.0383    1.9882   -1.0273 C.3       1 <0>         0.0000
     10 C10        -3.4456    4.3900   -0.5583 C.3       1 <0>         0.0000
     11 C11         0.2195    0.8307    0.9188 C.3       1 <0>         0.0000
     12 C12        -1.0001    1.1700    0.0549 C.3       1 <0>         0.0000
     13 C13         2.3649   -0.5352    1.2935 C.3       1 <0>         0.0000
     14 C14         1.1534   -0.2750    0.3710 C.3       1 <0>         0.0000
     15 C15        -2.9141    2.9715   -0.7245 C.3       1 <0>         0.0000
     16 N1          1.6681    0.0834   -0.9557 N.3       1 <0>         0.0000
     17 N2          1.4238   -0.2520    4.8674 N.am      1 <0>         0.0000
     18 N3          1.7877    0.0290    3.5734 N.am      1 <0>         0.0000
     19 O1          2.5607    1.5803    5.7128 O.2       1 <0>         0.0000
     20 O2          1.7602   -2.2018    2.9407 O.2       1 <0>         0.0000
     21 O3          3.2186   -1.5159    0.7230 O.3       1 <0>         0.0000
     22 S1         -2.0492    2.4644    0.7791 S.3       1 <0>         0.0000
     23 Cl1         2.7022    0.7144   11.0020 Cl        1 <0>         0.0000
     24 H1         -1.1315   -1.3570    8.8560 H         1 <0>         0.0000
     25 H2         -0.3881   -0.7667    6.5757 H         1 <0>         0.0000
     26 H3          0.2219   -0.7106   10.8159 H         1 <0>         0.0000
     27 H4          3.1065    1.1449    8.2076 H         1 <0>         0.0000
     28 H5         -4.7755    1.9915   -0.2167 H         1 <0>         0.0000
     29 H6         -4.5662    2.2576   -1.9489 H         1 <0>         0.0000
     30 H7         -3.6673    0.9620   -1.1303 H         1 <0>         0.0000
     31 H8         -4.1737    4.4304    0.2595 H         1 <0>         0.0000
     32 H9         -3.9550    4.7339   -1.4654 H         1 <0>         0.0000
     33 H10        -2.6458    5.1012   -0.3221 H         1 <0>         0.0000
     34 H11        -0.1531    0.5335    1.9082 H         1 <0>         0.0000
     35 H12         0.7975    1.7493    1.0822 H         1 <0>         0.0000
     36 H13        -1.6176    0.2727   -0.0585 H         1 <0>         0.0000
     37 H14        -0.7009    1.4813   -0.9501 H         1 <0>         0.0000
     38 H15         2.9484    0.3859    1.4229 H         1 <0>         0.0000
     39 H16         0.5915   -1.2082    0.2610 H         1 <0>         0.0000
     40 H17        -2.1892    2.9529   -1.5453 H         1 <0>         0.0000
     41 H18         0.8845    0.1717   -1.5934 H         1 <0>         0.0000
     42 H19         2.2416   -0.6802   -1.2969 H         1 <0>         0.0000
     43 H20         0.8460   -1.0583    5.0782 H         1 <0>         0.0000
     44 H21         1.9478    0.9869    3.2798 H         1 <0>         0.0000
     45 H22         2.7041   -2.3378    0.6655 H         1 <0>         0.0000
@<TRIPOS>BOND
     1    1    2 ar
     2    1    3 ar
     3    2    5 ar
     4    3    6 ar
     5    4    5 ar
     6    4    6 ar
     7    5    7 1
     8    6   23 1
     9    7   17 am
    10    7   19 2
    11    8   13 1
    12    8   18 am
    13    8   20 2
    14    9   15 1
    15   10   15 1
    16   11   12 1
    17   11   14 1
    18   12   22 1
    19   13   14 1
    20   13   21 1
    21   14   16 1
    22   15   22 1
    23   17   18 1
    24    1   24 1
    25    2   25 1
    26    3   26 1
    27    4   27 1
    28    9   28 1
    29    9   29 1
    30    9   30 1
    31   10   31 1
    32   10   32 1
    33   10   33 1
    34   11   34 1
    35   11   35 1
    36   12   36 1
    37   12   37 1
    38   13   38 1
    39   14   39 1
    40   15   40 1
    41   16   41 1
    42   16   42 1
    43   17   43 1
    44   18   44 1
    45   21   45 1
@<TRIPOS>MOLECULE
LIGAND
   45    45     0     0     0
SMALL
NO_CHARGES

@<TRIPOS>ATOM
      1 C1          2.2466   -2.5526    8.8826 C.ar      1 <0>         0.0000
      2 C2          2.5475   -2.1101    7.5945 C.ar      1 <0>         0.0000
      3 C3          2.1624   -1.6379    9.9324 C.ar      1 <0>         0.0000
      4 C4          2.6802    0.1617    8.4058 C.ar      1 <0>         0.0000
      5 C5          2.7643   -0.7530    7.3561 C.ar      1 <0>         0.0000
      6 C6          2.3792   -0.2808    9.6940 C.ar      1 <0>         0.0000
      7 C7          3.0854   -0.2826    5.9837 C.2       1 <0>         0.0000
      8 C8          1.9325   -1.0133    2.6768 C.2       1 <0>         0.0000
      9 C9         -2.0930    0.1515   -2.9182 C.3       1 <0>         0.0000
     10 C10        -4.3052   -0.3408   -1.8209 C.3       1 <0>         0.0000
     11 C11         0.2195    0.8307    0.9188 C.3       1 <0>         0.0000
     12 C12        -1.0001    1.1700    0.0549 C.3       1 <0>         0.0000
     13 C13         2.3649   -0.5352    1.2935 C.3       1 <0>         0.0000
     14 C14         1.1534   -0.2750    0.3710 C.3       1 <0>         0.0000
     15 C15        -2.9606    0.3632   -1.6834 C.3       1 <0>         0.0000
     16 N1          1.6681    0.0834   -0.9557 N.3       1 <0>         0.0000
     17 N2          2.6023   -1.0670    4.9540 N.am      1 <0>         0.0000
     18 N3          2.8469   -0.6810    3.6590 N.am      1 <0>         0.0000
     19 O1          3.7293    0.7533    5.8374 O.2       1 <0>         0.0000
     20 O2          0.8915   -1.6405    2.8632 O.2       1 <0>         0.0000
     21 O3          3.2186   -1.5159    0.7230 O.3       1 <0>         0.0000
     22 S1         -2.0977   -0.2515   -0.2193 S.3       1 <0>         0.0000
     23 Cl1         2.2747    0.8474   10.9897 Cl        1 <0>         0.0000
     24 H1          2.0776   -3.6092    9.0680 H         1 <0>         0.0000
     25 H2          2.6105   -2.8325    6.7847 H         1 <0>         0.0000
     26 H3          1.9271   -1.9973   10.9308 H         1 <0>         0.0000
     27 H4          2.8492    1.2199    8.2168 H         1 <0>         0.0000
     28 H5         -1.9123   -0.9173   -3.0778 H         1 <0>         0.0000
     29 H6         -2.5817    0.5374   -3.8198 H         1 <0>         0.0000
     30 H7         -1.1164    0.6393   -2.8203 H         1 <0>         0.0000
     31 H8         -4.1585   -1.4173   -1.9636 H         1 <0>         0.0000
     32 H9         -4.8626    0.0299   -2.6884 H         1 <0>         0.0000
     33 H10        -4.9288   -0.2091   -0.9293 H         1 <0>         0.0000
     34 H11        -0.1531    0.5335    1.9082 H         1 <0>         0.0000
     35 H12         0.7975    1.7493    1.0822 H         1 <0>         0.0000
     36 H13        -0.6573    1.5138   -0.9268 H         1 <0>         0.0000
     37 H14        -1.5832    1.9849    0.4933 H         1 <0>         0.0000
     38 H15         2.9484    0.3859    1.4229 H         1 <0>         0.0000
     39 H16         0.5915   -1.2082    0.2610 H         1 <0>         0.0000
     40 H17        -3.1292    1.4361   -1.5418 H         1 <0>         0.0000
     41 H18         0.8845    0.1717   -1.5934 H         1 <0>         0.0000
     42 H19         2.2416   -0.6802   -1.2969 H         1 <0>         0.0000
     43 H20         2.0769   -1.9119    5.1509 H         1 <0>         0.0000
     44 H21         3.6858   -0.1599    3.4266 H         1 <0>         0.0000
     45 H22         2.7041   -2.3378    0.6655 H         1 <0>         0.0000
@<TRIPOS>BOND
     1    1    2 ar
     2    1    3 ar
     3    2    5 ar
     4    3    6 ar
     5    4    5 ar
     6    4    6 ar
     7    5    7 1
     8    6   23 1
     9    7   17 am
    10    7   19 2
    11    8   13 1
    12    8   18 am
    13    8   20 2
    14    9   15 1
    15   10   15 1
    16   11   12 1
    17   11   14 1
    18   12   22 1
    19   13   14 1
    20   13   21 1
    21   14   16 1
    22   15   22 1
    23   17   18 1
    24    1   24 1
    25    2   25 1
    26    3   26 1
    27    4   27 1
    28    9   28 1
    29    9   29 1
    30    9   30 1
    31   10   31 1
    32   10   32 1
    33   10   33 1
    34   11   34 1
    35   11   35 1
    36   12   36 1
    37   12   37 1
    38   13   38 1
    39   14   39 1
    40   15   40 1
    41   16   41 1
    42   16   42 1
    43   17   43 1
    44   18   44 1
    45   21   45 1
@<TRIPOS>MOLECULE
LIGAND
   45    45     0     0     0
SMALL
NO_CHARGES

@<TRIPOS>ATOM
      1 C1          0.6903   -1.4334    8.8465 C.ar      1 <0>         0.0000
      2 C2          1.1123   -1.0980    7.5601 C.ar      1 <0>         0.0000
      3 C3          0.5659   -0.4424    9.8203 C.ar      1 <0>         0.0000
      4 C4          1.2856    1.2194    8.2211 C.ar      1 <0>         0.0000
      5 C5          1.4099    0.2284    7.2473 C.ar      1 <0>         0.0000
      6 C6          0.8636    0.8839    9.5076 C.ar      1 <0>         0.0000
      7 C7          1.8600    0.5847    5.8768 C.2       1 <0>         0.0000
      8 C8          1.9325   -1.0133    2.6768 C.2       1 <0>         0.0000
      9 C9         -4.0383    1.9882   -1.0273 C.3       1 <0>         0.0000
     10 C10        -3.4456    4.3900   -0.5583 C.3       1 <0>         0.0000
     11 C11         0.2195    0.8307    0.9188 C.3       1 <0>         0.0000
     12 C12        -1.0001    1.1700    0.0549 C.3       1 <0>         0.0000
     13 C13         2.3649   -0.5352    1.2935 C.3       1 <0>         0.0000
     14 C14         1.1534   -0.2750    0.3710 C.3       1 <0>         0.0000
     15 C15        -2.9141    2.9715   -0.7245 C.3       1 <0>         0.0000
     16 N1          1.6681    0.0834   -0.9557 N.3       1 <0>         0.0000
     17 N2          1.4238   -0.2520    4.8674 N.am      1 <0>         0.0000
     18 N3          1.7877    0.0290    3.5734 N.am      1 <0>         0.0000
     19 O1          2.5607    1.5803    5.7128 O.2       1 <0>         0.0000
     20 O2          1.7602   -2.2018    2.9407 O.2       1 <0>         0.0000
     21 O3          3.2186   -1.5159    0.7230 O.3       1 <0>         0.0000
     22 S1         -2.0492    2.4644    0.7791 S.3       1 <0>         0.0000
     23 Cl1         0.7094    2.1063   10.7095 Cl        1 <0>         0.0000
     24 H1          0.4583   -2.4661    9.0897 H         1 <0>         0.0000
     25 H2          1.2054   -1.8791    6.8098 H         1 <0>         0.0000
     26 H3          0.2360   -0.7187   10.8184 H         1 <0>         0.0000
     27 H4          1.5180    2.2533    7.9741 H         1 <0>         0.0000
     28 H5         -4.7755    1.9915   -0.2167 H         1 <0>         0.0000
     29 H6         -4.5662    2.2576   -1.9489 H         1 <0>         0.0000
     30 H7         -3.6673    0.9620   -1.1303 H         1 <0>         0.0000
     31 H8         -4.1737    4.4304    0.2595 H         1 <0>         0.0000
     32 H9         -3.9550    4.7339   -1.4654 H         1 <0>         0.0000
     33 H10        -2.6458    5.1012   -0.3221 H         1 <0>         0.0000
     34 H11        -0.1531    0.5335    1.9082 H         1 <0>         0.0000
     35 H12         0.7975    1.7493    1.0822 H         1 <0>         0.0000
     36 H13        -1.6176    0.2727   -0.0585 H         1 <0>         0.0000
     37 H14        -0.7009    1.4813   -0.9501 H         1 <0>         0.0000
     38 H15         2.9484    0.3859    1.4229 H         1 <0>         0.0000
     39 H16         0.5915   -1.2082    0.2610 H         1 <0>         0.0000
     40 H17        -2.1892    2.9529   -1.5453 H         1 <0>         0.0000
     41 H18         0.8845    0.1717   -1.5934 H         1 <0>         0.0000
     42 H19         2.2416   -0.6802   -1.2969 H         1 <0>         0.0000
     43 H20         0.8460   -1.0583    5.0782 H         1 <0>         0.0000
     44 H21         1.9478    0.9869    3.2798 H         1 <0>         0.0000
     45 H22         2.7041   -2.3378    0.6655 H         1 <0>         0.0000
@<TRIPOS>BOND
     1    1    2 ar
     2    1    3 ar
     3    2    5 ar
     4    3    6 ar
     5    4    5 ar
     6    4    6 ar
     7    5    7 1
     8    6   23 1
     9    7   17 am
    10    7   19 2
    11    8   13 1
    12    8   18 am
    13    8   20 2
    14    9   15 1
    15   10   15 1
    16   11   12 1
    17   11   14 1
    18   12   22 1
    19   13   14 1
    20   13   21 1
    21   14   16 1
    22   15   22 1
    23   17   18 1
    24    1   24 1
    25    2   25 1
    26    3   26 1
    27    4   27 1
    28    9   28 1
    29    9   29 1
    30    9   30 1
    31   10   31 1
    32   10   32 1
    33   10   33 1
    34   11   34 1
    35   11   35 1
    36   12   36 1
    37   12   37 1
    38   13   38 1
    39   14   39 1
    40   15   40 1
    41   16   41 1
    42   16   42 1
    43   17   43 1
    44   18   44 1
    45   21   45 1
@<TRIPOS>MOLECULE
LIGAND
   45    45     0     0     0
SMALL
NO_CHARGES

@<TRIPOS>ATOM
      1 C1         -2.6332   -0.5024    8.0491 C.ar      1 <0>         0.0000
      2 C2         -2.2347   -0.1578    6.7576 C.ar      1 <0>         0.0000
      3 C3         -1.6781   -0.8523    9.0037 C.ar      1 <0>         0.0000
      4 C4          0.0739   -0.5130    7.3751 C.ar      1 <0>         0.0000
      5 C5         -0.8811   -0.1631    6.4206 C.ar      1 <0>         0.0000
      6 C6         -0.3246   -0.8576    8.6667 C.ar      1 <0>         0.0000
      7 C7         -0.4576    0.2036    5.0443 C.2       1 <0>         0.0000
      8 C8          1.9325   -1.0133    2.6768 C.2       1 <0>         0.0000
      9 C9          3.3218    4.6503   -1.4873 C.3       1 <0>         0.0000
     10 C10         2.5201    5.0479    0.8663 C.3       1 <0>         0.0000
     11 C11         1.5761    0.1765   -1.0474 C.3       1 <0>         0.0000
     12 C12         2.3784    1.4800   -1.1273 C.3       1 <0>         0.0000
     13 C13         2.3649   -0.5352    1.2935 C.3       1 <0>         0.0000
     14 C14         1.1534   -0.2750    0.3710 C.3       1 <0>         0.0000
     15 C15         2.8874    4.0013   -0.1787 C.3       1 <0>         0.0000
     16 N1          0.3597   -1.5080    0.3138 N.3       1 <0>         0.0000
     17 N2          0.7320   -0.3536    4.6161 N.am      1 <0>         0.0000
     18 N3          1.1743   -0.0714    3.3469 N.am      1 <0>         0.0000
     19 O1         -1.1696    0.9461    4.3728 O.2       1 <0>         0.0000
     20 O2          2.2555   -2.1109    3.1269 O.2       1 <0>         0.0000
     21 O3          3.2186   -1.5159    0.7230 O.3       1 <0>         0.0000
     22 S1          1.4741    2.9151   -0.4766 S.3       1 <0>         0.0000
     23 Cl1         0.8534   -1.2889    9.8452 Cl        1 <0>         0.0000
     24 H1         -3.6870   -0.4979    8.3114 H         1 <0>         0.0000
     25 H2         -2.9882    0.1130    6.0224 H         1 <0>         0.0000
     26 H3         -2.0036   -1.1185   10.0060 H         1 <0>         0.0000
     27 H4          1.1292   -0.5157    7.1095 H         1 <0>         0.0000
     28 H5          2.5159    5.2753   -1.8880 H         1 <0>         0.0000
     29 H6          4.1939    5.2975   -1.3412 H         1 <0>         0.0000
     30 H7          3.5704    3.9045   -2.2509 H         1 <0>         0.0000
     31 H8          1.7019    5.6790    0.5018 H         1 <0>         0.0000
     32 H9          3.3673    5.7072    1.0854 H         1 <0>         0.0000
     33 H10         2.1889    4.5896    1.8052 H         1 <0>         0.0000
     34 H11         2.1843   -0.6108   -1.5125 H         1 <0>         0.0000
     35 H12         0.6847    0.2765   -1.6798 H         1 <0>         0.0000
     36 H13         2.6151    1.6893   -2.1758 H         1 <0>         0.0000
     37 H14         3.3304    1.3937   -0.5957 H         1 <0>         0.0000
     38 H15         2.9484    0.3859    1.4229 H         1 <0>         0.0000
     39 H16         0.5249    0.4957    0.8291 H         1 <0>         0.0000
     40 H17         3.7055    3.3821    0.2046 H         1 <0>         0.0000
     41 H18        -0.4842   -1.3249   -0.2178 H         1 <0>         0.0000
     42 H19         0.0690   -1.7492    1.2550 H         1 <0>         0.0000
     43 H20         1.2684   -0.9594    5.2274 H         1 <0>         0.0000
     44 H21         0.9480    0.8148    2.9078 H         1 <0>         0.0000
     45 H22         2.7041   -2.3378    0.6655 H         1 <0>         0.0000
@<TRIPOS>BOND
     1    1    2 ar
     2    1    3 ar
     3    2    5 ar
     4    3    6 ar
     5    4    5 ar
     6    4    6 ar
     7    5    7 1
     8    6   23 1
     9    7   17 am
    10    7   19 2
    11    8   13 1
    12    8   18 am
    13    8   20 2
    14    9   15 1
    15   10   15 1
    16   11   12 1
    17   11   14 1
    18   12   22 1
    19   13   14 1
    20   13   21 1
    21   14   16 1
    22   15   22 1
    23   17   18 1
    24    1   24 1
    25    2   25 1
    26    3   26 1
    27    4   27 1
    28    9   28 1
    29    9   29 1
    30    9   30 1
    31   10   31 1
    32   10   32 1
    33   10   33 1
    34   11   34 1
    35   11   35 1
    36   12   36 1
    37   12   37 1
    38   13   38 1
    39   14   39 1
    40   15   40 1
    41   16   41 1
    42   16   42 1
    43   17   43 1
    44   18   44 1
    45   21   45 1
@<TRIPOS>MOLECULE
LIGAND
   45    45     0     0     0
SMALL
NO_CHARGES

@<TRIPOS>ATOM
      1 C1          2.4230   -4.2883    8.5214 C.ar      1 <0>         0.0000
      2 C2          2.6907   -3.9683    7.1905 C.ar      1 <0>         0.0000
      3 C3          2.2530   -3.2726    9.4623 C.ar      1 <0>         0.0000
      4 C4          2.6187   -1.6170    7.7412 C.ar      1 <0>         0.0000
      5 C5          2.7886   -2.6327    6.8003 C.ar      1 <0>         0.0000
      6 C6          2.3509   -1.9370    9.0722 C.ar      1 <0>         0.0000
      7 C7          3.0744   -2.2928    5.3823 C.2       1 <0>         0.0000
      8 C8          1.9325   -1.0133    2.6768 C.2       1 <0>         0.0000
      9 C9         -4.5752    3.1779    0.0331 C.3       1 <0>         0.0000
     10 C10        -2.7668    3.3107   -1.7140 C.3       1 <0>         0.0000
     11 C11         0.2195    0.8307    0.9188 C.3       1 <0>         0.0000
     12 C12        -1.0001    1.1700    0.0549 C.3       1 <0>         0.0000
     13 C13         2.3649   -0.5352    1.2935 C.3       1 <0>         0.0000
     14 C14         1.1534   -0.2750    0.3710 C.3       1 <0>         0.0000
     15 C15        -3.3066    2.5373   -0.5169 C.3       1 <0>         0.0000
     16 N1          1.6681    0.0834   -0.9557 N.3       1 <0>         0.0000
     17 N2          2.6023   -1.0670    4.9540 N.am      1 <0>         0.0000
     18 N3          2.8469   -0.6810    3.6590 N.am      1 <0>         0.0000
     19 O1          3.7083   -3.0847    4.6892 O.2       1 <0>         0.0000
     20 O2          0.8915   -1.6405    2.8632 O.2       1 <0>         0.0000
     21 O3          3.2186   -1.5159    0.7230 O.3       1 <0>         0.0000
     22 S1         -2.0492    2.4644    0.7791 S.3       1 <0>         0.0000
     23 Cl1         2.1407   -0.6842   10.2336 Cl        1 <0>         0.0000
     24 H1          2.3465   -5.3282    8.8249 H         1 <0>         0.0000
     25 H2          2.8213   -4.7686    6.4665 H         1 <0>         0.0000
     26 H3          2.0449   -3.5371   10.4958 H         1 <0>         0.0000
     27 H4          2.6951   -0.5760    7.4338 H         1 <0>         0.0000
     28 H5         -4.3764    4.2092    0.3452 H         1 <0>         0.0000
     29 H6         -5.3650    3.2137   -0.7256 H         1 <0>         0.0000
     30 H7         -4.9604    2.6385    0.9059 H         1 <0>         0.0000
     31 H8         -2.5401    4.3441   -1.4288 H         1 <0>         0.0000
     32 H9         -3.5004    3.3505   -2.5268 H         1 <0>         0.0000
     33 H10        -1.8438    2.8672   -2.1048 H         1 <0>         0.0000
     34 H11        -0.1531    0.5335    1.9082 H         1 <0>         0.0000
     35 H12         0.7975    1.7493    1.0822 H         1 <0>         0.0000
     36 H13        -1.6176    0.2727   -0.0585 H         1 <0>         0.0000
     37 H14        -0.7009    1.4813   -0.9501 H         1 <0>         0.0000
     38 H15         2.9484    0.3859    1.4229 H         1 <0>         0.0000
     39 H16         0.5915   -1.2082    0.2610 H         1 <0>         0.0000
     40 H17        -3.5264    1.5088   -0.8227 H         1 <0>         0.0000
     41 H18         0.8845    0.1717   -1.5934 H         1 <0>         0.0000
     42 H19         2.2416   -0.6802   -1.2969 H         1 <0>         0.0000
     43 H20         2.0849   -0.4638    5.5841 H         1 <0>         0.0000
     44 H21         3.6858   -0.1599    3.4266 H         1 <0>         0.0000
     45 H22         2.7041   -2.3378    0.6655 H         1 <0>         0.0000
@<TRIPOS>BOND
     1    1    2 ar
     2    1    3 ar
     3    2    5 ar
     4    3    6 ar
     5    4    5 ar
     6    4    6 ar
     7    5    7 1
     8    6   23 1
     9    7   17 am
    10    7   19 2
    11    8   13 1
    12    8   18 am
    13    8   20 2
    14    9   15 1
    15   10   15 1
    16   11   12 1
    17   11   14 1
    18   12   22 1
    19   13   14 1
    20   13   21 1
    21   14   16 1
    22   15   22 1
    23   17   18 1
    24    1   24 1
    25    2   25 1
    26    3   26 1
    27    4   27 1
    28    9   28 1
    29    9   29 1
    30    9   30 1
    31   10   31 1
    32   10   32 1
    33   10   33 1
    34   11   34 1
    35   11   35 1
    36   12   36 1
    37   12   37 1
    38   13   38 1
    39   14   39 1
    40   15   40 1
    41   16   41 1
    42   16   42 1
    43   17   43 1
    44   18   44 1
    45   21   45 1
@<TRIPOS>MOLECULE
LIGAND
   45    45     0     0     0
SMALL
NO_CHARGES

@<TRIPOS>ATOM
      1 C1         -2.1901   -5.6246    6.3015 C.ar      1 <0>         0.0000
      2 C2         -1.7709   -5.0911    5.0828 C.ar      1 <0>         0.0000
      3 C3         -1.7948   -5.0260    7.4978 C.ar      1 <0>         0.0000
      4 C4         -0.5609   -3.3604    6.2567 C.ar      1 <0>         0.0000
      5 C5         -0.9563   -3.9590    5.0604 C.ar      1 <0>         0.0000
      6 C6         -0.9802   -3.8940    7.4754 C.ar      1 <0>         0.0000
      7 C7         -0.5097   -3.3917    3.7617 C.2       1 <0>         0.0000
      8 C8          1.9325   -1.0133    2.6768 C.2       1 <0>         0.0000
      9 C9         -2.8396    0.6809   -2.6742 C.3       1 <0>         0.0000
     10 C10        -4.6560   -0.1960   -1.1670 C.3       1 <0>         0.0000
     11 C11         0.2195    0.8307    0.9188 C.3       1 <0>         0.0000
     12 C12        -1.0001    1.1700    0.0549 C.3       1 <0>         0.0000
     13 C13         2.3649   -0.5352    1.2935 C.3       1 <0>         0.0000
     14 C14         1.1534   -0.2750    0.3710 C.3       1 <0>         0.0000
     15 C15        -3.3416    0.5718   -1.2395 C.3       1 <0>         0.0000
     16 N1          1.6681    0.0834   -0.9557 N.3       1 <0>         0.0000
     17 N2          0.6851   -2.6985    3.7909 N.am      1 <0>         0.0000
     18 N3          1.1665   -2.1628    2.6216 N.am      1 <0>         0.0000
     19 O1         -1.1937   -3.5743    2.7577 O.2       1 <0>         0.0000
     20 O2          2.2299   -0.4108    3.7066 O.2       1 <0>         0.0000
     21 O3          3.2186   -1.5159    0.7230 O.3       1 <0>         0.0000
     22 S1         -2.0977   -0.2515   -0.2193 S.3       1 <0>         0.0000
     23 Cl1        -0.4932   -3.1556    8.9519 Cl        1 <0>         0.0000
     24 H1         -2.8246   -6.5059    6.3187 H         1 <0>         0.0000
     25 H2         -2.0854   -5.5665    4.1572 H         1 <0>         0.0000
     26 H3         -2.1292   -5.4530    8.4398 H         1 <0>         0.0000
     27 H4          0.0741   -2.4771    6.2361 H         1 <0>         0.0000
     28 H5         -2.6847   -0.3167   -3.1002 H         1 <0>         0.0000
     29 H6         -3.5648    1.1984   -3.3121 H         1 <0>         0.0000
     30 H7         -1.8850    1.2160   -2.7338 H         1 <0>         0.0000
     31 H8         -4.5291   -1.2071   -1.5698 H         1 <0>         0.0000
     32 H9         -5.4375    0.2943   -1.7580 H         1 <0>         0.0000
     33 H10        -5.0153   -0.2952   -0.1363 H         1 <0>         0.0000
     34 H11        -0.1531    0.5335    1.9082 H         1 <0>         0.0000
     35 H12         0.7975    1.7493    1.0822 H         1 <0>         0.0000
     36 H13        -0.6573    1.5138   -0.9268 H         1 <0>         0.0000
     37 H14        -1.5832    1.9849    0.4933 H         1 <0>         0.0000
     38 H15         2.9484    0.3859    1.4229 H         1 <0>         0.0000
     39 H16         0.5915   -1.2082    0.2610 H         1 <0>         0.0000
     40 H17        -3.4899    1.5778   -0.8328 H         1 <0>         0.0000
     41 H18         0.8845    0.1717   -1.5934 H         1 <0>         0.0000
     42 H19         2.2416   -0.6802   -1.2969 H         1 <0>         0.0000
     43 H20         1.1968   -2.5873    4.6594 H         1 <0>         0.0000
     44 H21         0.9630   -2.6038    1.7309 H         1 <0>         0.0000
     45 H22         2.7041   -2.3378    0.6655 H         1 <0>         0.0000
@<TRIPOS>BOND
     1    1    2 ar
     2    1    3 ar
     3    2    5 ar
     4    3    6 ar
     5    4    5 ar
     6    4    6 ar
     7    5    7 1
     8    6   23 1
     9    7   17 am
    10    7   19 2
    11    8   13 1
    12    8   18 am
    13    8   20 2
    14    9   15 1
    15   10   15 1
    16   11   12 1
    17   11   14 1
    18   12   22 1
    19   13   14 1
    20   13   21 1
    21   14   16 1
    22   15   22 1
    23   17   18 1
    24    1   24 1
    25    2   25 1
    26    3   26 1
    27    4   27 1
    28    9   28 1
    29    9   29 1
    30    9   30 1
    31   10   31 1
    32   10   32 1
    33   10   33 1
    34   11   34 1
    35   11   35 1
    36   12   36 1
    37   12   37 1
    38   13   38 1
    39   14   39 1
    40   15   40 1
    41   16   41 1
    42   16   42 1
    43   17   43 1
    44   18   44 1
    45   21   45 1
@<TRIPOS>MOLECULE
LIGAND
   45    45     0     0     0
SMALL
NO_CHARGES

@<TRIPOS>ATOM
      1 C1          0.2436   -1.5853    8.6879 C.ar      1 <0>         0.0000
      2 C2          0.6848   -1.3243    7.3907 C.ar      1 <0>         0.0000
      3 C3          1.0636   -1.2882    9.7766 C.ar      1 <0>         0.0000
      4 C4          2.7661   -0.4692    8.2707 C.ar      1 <0>         0.0000
      5 C5          1.9460   -0.7663    7.1821 C.ar      1 <0>         0.0000
      6 C6          2.3248   -0.7302    9.5679 C.ar      1 <0>         0.0000
      7 C7          2.4155   -0.4891    5.7998 C.2       1 <0>         0.0000
      8 C8          1.9325   -1.0133    2.6768 C.2       1 <0>         0.0000
      9 C9         -3.5456    2.3208    3.0565 C.3       1 <0>         0.0000
     10 C10        -4.0220    0.6377    1.2453 C.3       1 <0>         0.0000
     11 C11         0.2195    0.8307    0.9188 C.3       1 <0>         0.0000
     12 C12        -1.0001    1.1700    0.0549 C.3       1 <0>         0.0000
     13 C13         2.3649   -0.5352    1.2935 C.3       1 <0>         0.0000
     14 C14         1.1534   -0.2750    0.3710 C.3       1 <0>         0.0000
     15 C15        -2.9459    1.4397    1.9673 C.3       1 <0>         0.0000
     16 N1          1.6681    0.0834   -0.9557 N.3       1 <0>         0.0000
     17 N2          1.4238   -0.2520    4.8674 N.am      1 <0>         0.0000
     18 N3          1.7877    0.0290    3.5734 N.am      1 <0>         0.0000
     19 O1          3.6213   -0.4699    5.5658 O.2       1 <0>         0.0000
     20 O2          1.7602   -2.2018    2.9407 O.2       1 <0>         0.0000
     21 O3          3.2186   -1.5159    0.7230 O.3       1 <0>         0.0000
     22 S1         -2.0492    2.4644    0.7791 S.3       1 <0>         0.0000
     23 Cl1         3.3359   -0.3635   10.9117 Cl        1 <0>         0.0000
     24 H1         -0.7386   -2.0195    8.8502 H         1 <0>         0.0000
     25 H2          0.0368   -1.5602    6.5505 H         1 <0>         0.0000
     26 H3          0.7063   -1.4972   10.7816 H         1 <0>         0.0000
     27 H4          3.7493   -0.0335    8.1049 H         1 <0>         0.0000
     28 H5         -4.2705    3.0197    2.6246 H         1 <0>         0.0000
     29 H6         -4.0763    1.7229    3.8059 H         1 <0>         0.0000
     30 H7         -2.7806    2.9152    3.5690 H         1 <0>         0.0000
     31 H8         -4.7543    1.3108    0.7855 H         1 <0>         0.0000
     32 H9         -4.5673   -0.0125    1.9385 H         1 <0>         0.0000
     33 H10        -3.6015    0.0146    0.4477 H         1 <0>         0.0000
     34 H11        -0.1531    0.5335    1.9082 H         1 <0>         0.0000
     35 H12         0.7975    1.7493    1.0822 H         1 <0>         0.0000
     36 H13        -1.6176    0.2727   -0.0585 H         1 <0>         0.0000
     37 H14        -0.7009    1.4813   -0.9501 H         1 <0>         0.0000
     38 H15         2.9484    0.3859    1.4229 H         1 <0>         0.0000
     39 H16         0.5915   -1.2082    0.2610 H         1 <0>         0.0000
     40 H17        -2.2253    0.7496    2.4190 H         1 <0>         0.0000
     41 H18         0.8845    0.1717   -1.5934 H         1 <0>         0.0000
     42 H19         2.2416   -0.6802   -1.2969 H         1 <0>         0.0000
     43 H20         0.4458   -0.2847    5.1337 H         1 <0>         0.0000
     44 H21         1.9478    0.9869    3.2798 H         1 <0>         0.0000
     45 H22         2.7041   -2.3378    0.6655 H         1 <0>         0.0000
@<TRIPOS>BOND
     1    1    2 ar
     2    1    3 ar
     3    2    5 ar
     4    3    6 ar
     5    4    5 ar
     6    4    6 ar
     7    5    7 1
     8    6   23 1
     9    7   17 am
    10    7   19 2
    11    8   13 1
    12    8   18 am
    13    8   20 2
    14    9   15 1
    15   10   15 1
    16   11   12 1
    17   11   14 1
    18   12   22 1
    19   13   14 1
    20   13   21 1
    21   14   16 1
    22   15   22 1
    23   17   18 1
    24    1   24 1
    25    2   25 1
    26    3   26 1
    27    4   27 1
    28    9   28 1
    29    9   29 1
    30    9   30 1
    31   10   31 1
    32   10   32 1
    33   10   33 1
    34   11   34 1
    35   11   35 1
    36   12   36 1
    37   12   37 1
    38   13   38 1
    39   14   39 1
    40   15   40 1
    41   16   41 1
    42   16   42 1
    43   17   43 1
    44   18   44 1
    45   21   45 1
@<TRIPOS>MOLECULE
LIGAND
   45    45     0     0     0
SMALL
NO_CHARGES

@<TRIPOS>ATOM
      1 C1          0.2838   -0.5121    8.9168 C.ar      1 <0>         0.0000
      2 C2          0.7255   -0.2519    7.6195 C.ar      1 <0>         0.0000
      3 C3          1.0627   -1.2866    9.7766 C.ar      1 <0>         0.0000
      4 C4          2.7249   -1.5408    8.0419 C.ar      1 <0>         0.0000
      5 C5          1.9460   -0.7663    7.1821 C.ar      1 <0>         0.0000
      6 C6          2.2832   -1.8009    9.3391 C.ar      1 <0>         0.0000
      7 C7          2.4155   -0.4891    5.7998 C.2       1 <0>         0.0000
      8 C8          1.9325   -1.0133    2.6768 C.2       1 <0>         0.0000
      9 C9         -3.5456    2.3208    3.0565 C.3       1 <0>         0.0000
     10 C10        -4.0220    0.6377    1.2453 C.3       1 <0>         0.0000
     11 C11         0.2195    0.8307    0.9188 C.3       1 <0>         0.0000
     12 C12        -1.0001    1.1700    0.0549 C.3       1 <0>         0.0000
     13 C13         2.3649   -0.5352    1.2935 C.3       1 <0>         0.0000
     14 C14         1.1534   -0.2750    0.3710 C.3       1 <0>         0.0000
     15 C15        -2.9459    1.4397    1.9673 C.3       1 <0>         0.0000
     16 N1          1.6681    0.0834   -0.9557 N.3       1 <0>         0.0000
     17 N2          1.4238   -0.2520    4.8674 N.am      1 <0>         0.0000
     18 N3          1.7877    0.0290    3.5734 N.am      1 <0>         0.0000
     19 O1          3.6213   -0.4699    5.5658 O.2       1 <0>         0.0000
     20 O2          1.7602   -2.2018    2.9407 O.2       1 <0>         0.0000
     21 O3          3.2186   -1.5159    0.7230 O.3       1 <0>         0.0000
     22 S1         -2.0492    2.4644    0.7791 S.3       1 <0>         0.0000
     23 Cl1         3.2440   -2.7561   10.4008 Cl        1 <0>         0.0000
     24 H1         -0.6664   -0.1113    9.2573 H         1 <0>         0.0000
     25 H2          0.1097    0.3528    6.9588 H         1 <0>         0.0000
     26 H3          0.7056   -1.4810   10.7846 H         1 <0>         0.0000
     27 H4          3.6769   -1.9403    7.6980 H         1 <0>         0.0000
     28 H5         -4.2705    3.0197    2.6246 H         1 <0>         0.0000
     29 H6         -4.0763    1.7229    3.8059 H         1 <0>         0.0000
     30 H7         -2.7806    2.9152    3.5690 H         1 <0>         0.0000
     31 H8         -4.7543    1.3108    0.7855 H         1 <0>         0.0000
     32 H9         -4.5673   -0.0125    1.9385 H         1 <0>         0.0000
     33 H10        -3.6015    0.0146    0.4477 H         1 <0>         0.0000
     34 H11        -0.1531    0.5335    1.9082 H         1 <0>         0.0000
     35 H12         0.7975    1.7493    1.0822 H         1 <0>         0.0000
     36 H13        -1.6176    0.2727   -0.0585 H         1 <0>         0.0000
     37 H14        -0.7009    1.4813   -0.9501 H         1 <0>         0.0000
     38 H15         2.9484    0.3859    1.4229 H         1 <0>         0.0000
     39 H16         0.5915   -1.2082    0.2610 H         1 <0>         0.0000
     40 H17        -2.2253    0.7496    2.4190 H         1 <0>         0.0000
     41 H18         0.8845    0.1717   -1.5934 H         1 <0>         0.0000
     42 H19         2.2416   -0.6802   -1.2969 H         1 <0>         0.0000
     43 H20         0.4458   -0.2847    5.1337 H         1 <0>         0.0000
     44 H21         1.9478    0.9869    3.2798 H         1 <0>         0.0000
     45 H22         2.7041   -2.3378    0.6655 H         1 <0>         0.0000
@<TRIPOS>BOND
     1    1    2 ar
     2    1    3 ar
     3    2    5 ar
     4    3    6 ar
     5    4    5 ar
     6    4    6 ar
     7    5    7 1
     8    6   23 1
     9    7   17 am
    10    7   19 2
    11    8   13 1
    12    8   18 am
    13    8   20 2
    14    9   15 1
    15   10   15 1
    16   11   12 1
    17   11   14 1
    18   12   22 1
    19   13   14 1
    20   13   21 1
    21   14   16 1
    22   15   22 1
    23   17   18 1
    24    1   24 1
    25    2   25 1
    26    3   26 1
    27    4   27 1
    28    9   28 1
    29    9   29 1
    30    9   30 1
    31   10   31 1
    32   10   32 1
    33   10   33 1
    34   11   34 1
    35   11   35 1
    36   12   36 1
    37   12   37 1
    38   13   38 1
    39   14   39 1
    40   15   40 1
    41   16   41 1
    42   16   42 1
    43   17   43 1
    44   18   44 1
    45   21   45 1
@<TRIPOS>MOLECULE
LIGAND
   45    45     0     0     0
SMALL
NO_CHARGES

@<TRIPOS>ATOM
      1 C1          3.9068   -1.8228    9.5212 C.ar      1 <0>         0.0000
      2 C2          4.2280   -1.4546    8.2148 C.ar      1 <0>         0.0000
      3 C3          2.6909   -2.4514    9.7897 C.ar      1 <0>         0.0000
      4 C4          2.1173   -2.3434    7.4453 C.ar      1 <0>         0.0000
      5 C5          3.3333   -1.7148    7.1768 C.ar      1 <0>         0.0000
      6 C6          1.7961   -2.7117    8.7518 C.ar      1 <0>         0.0000
      7 C7          3.6760   -1.3216    5.7855 C.2       1 <0>         0.0000
      8 C8          1.9325   -1.0133    2.6768 C.2       1 <0>         0.0000
      9 C9         -2.0930    0.1515   -2.9182 C.3       1 <0>         0.0000
     10 C10        -4.3052   -0.3408   -1.8209 C.3       1 <0>         0.0000
     11 C11         0.2195    0.8307    0.9188 C.3       1 <0>         0.0000
     12 C12        -1.0001    1.1700    0.0549 C.3       1 <0>         0.0000
     13 C13         2.3649   -0.5352    1.2935 C.3       1 <0>         0.0000
     14 C14         1.1534   -0.2750    0.3710 C.3       1 <0>         0.0000
     15 C15        -2.9606    0.3632   -1.6834 C.3       1 <0>         0.0000
     16 N1          1.6681    0.0834   -0.9557 N.3       1 <0>         0.0000
     17 N2          2.6023   -1.0670    4.9540 N.am      1 <0>         0.0000
     18 N3          2.8469   -0.6810    3.6590 N.am      1 <0>         0.0000
     19 O1          4.8567   -1.2304    5.4589 O.2       1 <0>         0.0000
     20 O2          0.8915   -1.6405    2.8632 O.2       1 <0>         0.0000
     21 O3          3.2186   -1.5159    0.7230 O.3       1 <0>         0.0000
     22 S1         -2.0977   -0.2515   -0.2193 S.3       1 <0>         0.0000
     23 Cl1         0.2961   -3.4877    9.0838 Cl        1 <0>         0.0000
     24 H1          4.6037   -1.6204   10.3291 H         1 <0>         0.0000
     25 H2          5.1785   -0.9653    8.0180 H         1 <0>         0.0000
     26 H3          2.4542   -2.7326   10.8127 H         1 <0>         0.0000
     27 H4          1.4214   -2.5457    6.6335 H         1 <0>         0.0000
     28 H5         -1.9123   -0.9173   -3.0778 H         1 <0>         0.0000
     29 H6         -2.5817    0.5374   -3.8198 H         1 <0>         0.0000
     30 H7         -1.1164    0.6393   -2.8203 H         1 <0>         0.0000
     31 H8         -4.1585   -1.4173   -1.9636 H         1 <0>         0.0000
     32 H9         -4.8626    0.0299   -2.6884 H         1 <0>         0.0000
     33 H10        -4.9288   -0.2091   -0.9293 H         1 <0>         0.0000
     34 H11        -0.1531    0.5335    1.9082 H         1 <0>         0.0000
     35 H12         0.7975    1.7493    1.0822 H         1 <0>         0.0000
     36 H13        -0.6573    1.5138   -0.9268 H         1 <0>         0.0000
     37 H14        -1.5832    1.9849    0.4933 H         1 <0>         0.0000
     38 H15         2.9484    0.3859    1.4229 H         1 <0>         0.0000
     39 H16         0.5915   -1.2082    0.2610 H         1 <0>         0.0000
     40 H17        -3.1292    1.4361   -1.5418 H         1 <0>         0.0000
     41 H18         0.8845    0.1717   -1.5934 H         1 <0>         0.0000
     42 H19         2.2416   -0.6802   -1.2969 H         1 <0>         0.0000
     43 H20         1.6516   -1.1634    5.2936 H         1 <0>         0.0000
     44 H21         3.6858   -0.1599    3.4266 H         1 <0>         0.0000
     45 H22         2.7041   -2.3378    0.6655 H         1 <0>         0.0000
@<TRIPOS>BOND
     1    1    2 ar
     2    1    3 ar
     3    2    5 ar
     4    3    6 ar
     5    4    5 ar
     6    4    6 ar
     7    5    7 1
     8    6   23 1
     9    7   17 am
    10    7   19 2
    11    8   13 1
    12    8   18 am
    13    8   20 2
    14    9   15 1
    15   10   15 1
    16   11   12 1
    17   11   14 1
    18   12   22 1
    19   13   14 1
    20   13   21 1
    21   14   16 1
    22   15   22 1
    23   17   18 1
    24    1   24 1
    25    2   25 1
    26    3   26 1
    27    4   27 1
    28    9   28 1
    29    9   29 1
    30    9   30 1
    31   10   31 1
    32   10   32 1
    33   10   33 1
    34   11   34 1
    35   11   35 1
    36   12   36 1
    37   12   37 1
    38   13   38 1
    39   14   39 1
    40   15   40 1
    41   16   41 1
    42   16   42 1
    43   17   43 1
    44   18   44 1
    45   21   45 1
@<TRIPOS>MOLECULE
LIGAND
   45    45     0     0     0
SMALL
NO_CHARGES

@<TRIPOS>ATOM
      1 C1         -2.6241   -1.6244    7.8186 C.ar      1 <0>         0.0000
      2 C2         -2.2458   -1.3508    6.5042 C.ar      1 <0>         0.0000
      3 C3         -1.6506   -1.8141    8.7994 C.ar      1 <0>         0.0000
      4 C4          0.0795   -1.4566    7.1515 C.ar      1 <0>         0.0000
      5 C5         -0.8940   -1.2668    6.1707 C.ar      1 <0>         0.0000
      6 C6         -0.2989   -1.7302    8.4659 C.ar      1 <0>         0.0000
      7 C7         -0.4919   -0.9759    4.7701 C.2       1 <0>         0.0000
      8 C8          1.9325   -1.0133    2.6768 C.2       1 <0>         0.0000
      9 C9         -0.7661    4.0842   -1.5067 C.3       1 <0>         0.0000
     10 C10         1.2631    3.9522   -2.9918 C.3       1 <0>         0.0000
     11 C11         1.5761    0.1765   -1.0474 C.3       1 <0>         0.0000
     12 C12         2.3784    1.4800   -1.1273 C.3       1 <0>         0.0000
     13 C13         2.3649   -0.5352    1.2935 C.3       1 <0>         0.0000
     14 C14         1.1534   -0.2750    0.3710 C.3       1 <0>         0.0000
     15 C15         0.4393    3.2484   -1.9202 C.3       1 <0>         0.0000
     16 N1          0.3597   -1.5080    0.3138 N.3       1 <0>         0.0000
     17 N2          0.7320   -0.3536    4.6161 N.am      1 <0>         0.0000
     18 N3          1.1743   -0.0714    3.3469 N.am      1 <0>         0.0000
     19 O1         -1.2351   -1.3059    3.8493 O.2       1 <0>         0.0000
     20 O2          2.2555   -2.1109    3.1269 O.2       1 <0>         0.0000
     21 O3          3.2186   -1.5159    0.7230 O.3       1 <0>         0.0000
     22 S1          1.4741    2.9151   -0.4766 S.3       1 <0>         0.0000
     23 Cl1         0.9018   -1.9639    9.6768 Cl        1 <0>         0.0000
     24 H1         -3.6766   -1.6894    8.0781 H         1 <0>         0.0000
     25 H2         -3.0136   -1.2050    5.7487 H         1 <0>         0.0000
     26 H3         -1.9605   -2.0267    9.8194 H         1 <0>         0.0000
     27 H4          1.1333   -1.3900    6.8885 H         1 <0>         0.0000
     28 H5         -0.4402    5.0542   -1.1149 H         1 <0>         0.0000
     29 H6         -1.4254    4.2821   -2.3592 H         1 <0>         0.0000
     30 H7         -1.3544    3.5937   -0.7229 H         1 <0>         0.0000
     31 H8          1.6202    4.9203   -2.6228 H         1 <0>         0.0000
     32 H9          0.6667    4.1459   -3.8903 H         1 <0>         0.0000
     33 H10         2.1426    3.3661   -3.2821 H         1 <0>         0.0000
     34 H11         2.1843   -0.6108   -1.5125 H         1 <0>         0.0000
     35 H12         0.6847    0.2765   -1.6798 H         1 <0>         0.0000
     36 H13         2.6151    1.6893   -2.1758 H         1 <0>         0.0000
     37 H14         3.3304    1.3937   -0.5957 H         1 <0>         0.0000
     38 H15         2.9484    0.3859    1.4229 H         1 <0>         0.0000
     39 H16         0.5249    0.4957    0.8291 H         1 <0>         0.0000
     40 H17         0.0926    2.2847   -2.3082 H         1 <0>         0.0000
     41 H18        -0.4842   -1.3249   -0.2178 H         1 <0>         0.0000
     42 H19         0.0690   -1.7492    1.2550 H         1 <0>         0.0000
     43 H20         1.2931   -0.1098    5.4249 H         1 <0>         0.0000
     44 H21         0.9480    0.8148    2.9078 H         1 <0>         0.0000
     45 H22         2.7041   -2.3378    0.6655 H         1 <0>         0.0000
@<TRIPOS>BOND
     1    1    2 ar
     2    1    3 ar
     3    2    5 ar
     4    3    6 ar
     5    4    5 ar
     6    4    6 ar
     7    5    7 1
     8    6   23 1
     9    7   17 am
    10    7   19 2
    11    8   13 1
    12    8   18 am
    13    8   20 2
    14    9   15 1
    15   10   15 1
    16   11   12 1
    17   11   14 1
    18   12   22 1
    19   13   14 1
    20   13   21 1
    21   14   16 1
    22   15   22 1
    23   17   18 1
    24    1   24 1
    25    2   25 1
    26    3   26 1
    27    4   27 1
    28    9   28 1
    29    9   29 1
    30    9   30 1
    31   10   31 1
    32   10   32 1
    33   10   33 1
    34   11   34 1
    35   11   35 1
    36   12   36 1
    37   12   37 1
    38   13   38 1
    39   14   39 1
    40   15   40 1
    41   16   41 1
    42   16   42 1
    43   17   43 1
    44   18   44 1
    45   21   45 1
@<TRIPOS>MOLECULE
LIGAND
   45    45     0     0     0
SMALL
NO_CHARGES

@<TRIPOS>ATOM
      1 C1         -0.1150    0.7489    9.2206 C.ar      1 <0>         0.0000
      2 C2          0.3538    1.1052    7.9561 C.ar      1 <0>         0.0000
      3 C3         -0.8842   -0.4037    9.3801 C.ar      1 <0>         0.0000
      4 C4         -0.7161   -0.8438    7.0105 C.ar      1 <0>         0.0000
      5 C5          0.0532    0.3088    6.8511 C.ar      1 <0>         0.0000
      6 C6         -1.1848   -1.2000    8.2751 C.ar      1 <0>         0.0000
      7 C7          0.5524    0.6894    5.5043 C.2       1 <0>         0.0000
      8 C8          1.9325   -1.0133    2.6768 C.2       1 <0>         0.0000
      9 C9          3.3218    4.6503   -1.4873 C.3       1 <0>         0.0000
     10 C10         2.5201    5.0479    0.8663 C.3       1 <0>         0.0000
     11 C11         1.5761    0.1765   -1.0474 C.3       1 <0>         0.0000
     12 C12         2.3784    1.4800   -1.1273 C.3       1 <0>         0.0000
     13 C13         2.3649   -0.5352    1.2935 C.3       1 <0>         0.0000
     14 C14         1.1534   -0.2750    0.3710 C.3       1 <0>         0.0000
     15 C15         2.8874    4.0013   -0.1787 C.3       1 <0>         0.0000
     16 N1          0.3597   -1.5080    0.3138 N.3       1 <0>         0.0000
     17 N2          0.7320   -0.3536    4.6161 N.am      1 <0>         0.0000
     18 N3          1.1743   -0.0714    3.3469 N.am      1 <0>         0.0000
     19 O1          0.7587    1.8736    5.2510 O.2       1 <0>         0.0000
     20 O2          2.2555   -2.1109    3.1269 O.2       1 <0>         0.0000
     21 O3          3.2186   -1.5159    0.7230 O.3       1 <0>         0.0000
     22 S1          1.4741    2.9151   -0.4766 S.3       1 <0>         0.0000
     23 Cl1        -2.1337   -2.6224    8.4727 Cl        1 <0>         0.0000
     24 H1          0.1194    1.3689   10.0809 H         1 <0>         0.0000
     25 H2          0.9522    2.0057    7.8445 H         1 <0>         0.0000
     26 H3         -1.2425   -0.6686   10.3715 H         1 <0>         0.0000
     27 H4         -0.9486   -1.4634    6.1467 H         1 <0>         0.0000
     28 H5          2.5159    5.2753   -1.8880 H         1 <0>         0.0000
     29 H6          4.1939    5.2975   -1.3412 H         1 <0>         0.0000
     30 H7          3.5704    3.9045   -2.2509 H         1 <0>         0.0000
     31 H8          1.7019    5.6790    0.5018 H         1 <0>         0.0000
     32 H9          3.3673    5.7072    1.0854 H         1 <0>         0.0000
     33 H10         2.1889    4.5896    1.8052 H         1 <0>         0.0000
     34 H11         2.1843   -0.6108   -1.5125 H         1 <0>         0.0000
     35 H12         0.6847    0.2765   -1.6798 H         1 <0>         0.0000
     36 H13         2.6151    1.6893   -2.1758 H         1 <0>         0.0000
     37 H14         3.3304    1.3937   -0.5957 H         1 <0>         0.0000
     38 H15         2.9484    0.3859    1.4229 H         1 <0>         0.0000
     39 H16         0.5249    0.4957    0.8291 H         1 <0>         0.0000
     40 H17         3.7055    3.3821    0.2046 H         1 <0>         0.0000
     41 H18        -0.4842   -1.3249   -0.2178 H         1 <0>         0.0000
     42 H19         0.0690   -1.7492    1.2550 H         1 <0>         0.0000
     43 H20         0.5409   -1.3094    4.8961 H         1 <0>         0.0000
     44 H21         0.9480    0.8148    2.9078 H         1 <0>         0.0000
     45 H22         2.7041   -2.3378    0.6655 H         1 <0>         0.0000
@<TRIPOS>BOND
     1    1    2 ar
     2    1    3 ar
     3    2    5 ar
     4    3    6 ar
     5    4    5 ar
     6    4    6 ar
     7    5    7 1
     8    6   23 1
     9    7   17 am
    10    7   19 2
    11    8   13 1
    12    8   18 am
    13    8   20 2
    14    9   15 1
    15   10   15 1
    16   11   12 1
    17   11   14 1
    18   12   22 1
    19   13   14 1
    20   13   21 1
    21   14   16 1
    22   15   22 1
    23   17   18 1
    24    1   24 1
    25    2   25 1
    26    3   26 1
    27    4   27 1
    28    9   28 1
    29    9   29 1
    30    9   30 1
    31   10   31 1
    32   10   32 1
    33   10   33 1
    34   11   34 1
    35   11   35 1
    36   12   36 1
    37   12   37 1
    38   13   38 1
    39   14   39 1
    40   15   40 1
    41   16   41 1
    42   16   42 1
    43   17   43 1
    44   18   44 1
    45   21   45 1
@<TRIPOS>MOLECULE
LIGAND
   45    45     0     0     0
SMALL
NO_CHARGES

@<TRIPOS>ATOM
      1 C1         -0.7874   -0.7484    8.5279 C.ar      1 <0>         0.0000
      2 C2         -0.4100   -0.4763    7.2130 C.ar      1 <0>         0.0000
      3 C3         -1.6489   -1.8111    8.8006 C.ar      1 <0>         0.0000
      4 C4         -1.7555   -2.3295    6.4433 C.ar      1 <0>         0.0000
      5 C5         -0.8940   -1.2668    6.1707 C.ar      1 <0>         0.0000
      6 C6         -2.1330   -2.6016    7.7583 C.ar      1 <0>         0.0000
      7 C7         -0.4919   -0.9759    4.7701 C.2       1 <0>         0.0000
      8 C8          1.9325   -1.0133    2.6768 C.2       1 <0>         0.0000
      9 C9         -0.7661    4.0842   -1.5067 C.3       1 <0>         0.0000
     10 C10         1.2631    3.9522   -2.9918 C.3       1 <0>         0.0000
     11 C11         1.5761    0.1765   -1.0474 C.3       1 <0>         0.0000
     12 C12         2.3784    1.4800   -1.1273 C.3       1 <0>         0.0000
     13 C13         2.3649   -0.5352    1.2935 C.3       1 <0>         0.0000
     14 C14         1.1534   -0.2750    0.3710 C.3       1 <0>         0.0000
     15 C15         0.4393    3.2484   -1.9202 C.3       1 <0>         0.0000
     16 N1          0.3597   -1.5080    0.3138 N.3       1 <0>         0.0000
     17 N2          0.7320   -0.3536    4.6161 N.am      1 <0>         0.0000
     18 N3          1.1743   -0.0714    3.3469 N.am      1 <0>         0.0000
     19 O1         -1.2351   -1.3059    3.8493 O.2       1 <0>         0.0000
     20 O2          2.2555   -2.1109    3.1269 O.2       1 <0>         0.0000
     21 O3          3.2186   -1.5159    0.7230 O.3       1 <0>         0.0000
     22 S1          1.4741    2.9151   -0.4766 S.3       1 <0>         0.0000
     23 Cl1        -3.1956   -3.9130    8.0955 Cl        1 <0>         0.0000
     24 H1         -0.4102   -0.1330    9.3393 H         1 <0>         0.0000
     25 H2          0.2618    0.3545    7.0131 H         1 <0>         0.0000
     26 H3         -1.9343   -2.0111    9.8301 H         1 <0>         0.0000
     27 H4         -2.1312   -2.9448    5.6282 H         1 <0>         0.0000
     28 H5         -0.4402    5.0542   -1.1149 H         1 <0>         0.0000
     29 H6         -1.4254    4.2821   -2.3592 H         1 <0>         0.0000
     30 H7         -1.3544    3.5937   -0.7229 H         1 <0>         0.0000
     31 H8          1.6202    4.9203   -2.6228 H         1 <0>         0.0000
     32 H9          0.6667    4.1459   -3.8903 H         1 <0>         0.0000
     33 H10         2.1426    3.3661   -3.2821 H         1 <0>         0.0000
     34 H11         2.1843   -0.6108   -1.5125 H         1 <0>         0.0000
     35 H12         0.6847    0.2765   -1.6798 H         1 <0>         0.0000
     36 H13         2.6151    1.6893   -2.1758 H         1 <0>         0.0000
     37 H14         3.3304    1.3937   -0.5957 H         1 <0>         0.0000
     38 H15         2.9484    0.3859    1.4229 H         1 <0>         0.0000
     39 H16         0.5249    0.4957    0.8291 H         1 <0>         0.0000
     40 H17         0.0926    2.2847   -2.3082 H         1 <0>         0.0000
     41 H18        -0.4842   -1.3249   -0.2178 H         1 <0>         0.0000
     42 H19         0.0690   -1.7492    1.2550 H         1 <0>         0.0000
     43 H20         1.2931   -0.1098    5.4249 H         1 <0>         0.0000
     44 H21         0.9480    0.8148    2.9078 H         1 <0>         0.0000
     45 H22         2.7041   -2.3378    0.6655 H         1 <0>         0.0000
@<TRIPOS>BOND
     1    1    2 ar
     2    1    3 ar
     3    2    5 ar
     4    3    6 ar
     5    4    5 ar
     6    4    6 ar
     7    5    7 1
     8    6   23 1
     9    7   17 am
    10    7   19 2
    11    8   13 1
    12    8   18 am
    13    8   20 2
    14    9   15 1
    15   10   15 1
    16   11   12 1
    17   11   14 1
    18   12   22 1
    19   13   14 1
    20   13   21 1
    21   14   16 1
    22   15   22 1
    23   17   18 1
    24    1   24 1
    25    2   25 1
    26    3   26 1
    27    4   27 1
    28    9   28 1
    29    9   29 1
    30    9   30 1
    31   10   31 1
    32   10   32 1
    33   10   33 1
    34   11   34 1
    35   11   35 1
    36   12   36 1
    37   12   37 1
    38   13   38 1
    39   14   39 1
    40   15   40 1
    41   16   41 1
    42   16   42 1
    43   17   43 1
    44   18   44 1
    45   21   45 1
@<TRIPOS>MOLECULE
LIGAND
   45    45     0     0     0
SMALL
NO_CHARGES

@<TRIPOS>ATOM
      1 C1         -0.2456    0.9322    9.2201 C.ar      1 <0>         0.0000
      2 C2          0.1058    1.2906    7.9187 C.ar      1 <0>         0.0000
      3 C3         -0.3840   -0.4137    9.5596 C.ar      1 <0>         0.0000
      4 C4          0.1802   -1.0427    7.2962 C.ar      1 <0>         0.0000
      5 C5          0.3186    0.3032    6.9567 C.ar      1 <0>         0.0000
      6 C6         -0.1712   -1.4011    8.5976 C.ar      1 <0>         0.0000
      7 C7          0.6923    0.6859    5.5704 C.2       1 <0>         0.0000
      8 C8          1.9325   -1.0133    2.6768 C.2       1 <0>         0.0000
      9 C9          0.0309    6.1524    1.8816 C.3       1 <0>         0.0000
     10 C10         1.7102    4.7140    3.0862 C.3       1 <0>         0.0000
     11 C11         0.2195    0.8307    0.9188 C.3       1 <0>         0.0000
     12 C12         0.8590    2.2074    1.1305 C.3       1 <0>         0.0000
     13 C13         2.3649   -0.5352    1.2935 C.3       1 <0>         0.0000
     14 C14         1.1534   -0.2750    0.3710 C.3       1 <0>         0.0000
     15 C15         0.8241    4.8515    1.8540 C.3       1 <0>         0.0000
     16 N1          1.6681    0.0834   -0.9557 N.3       1 <0>         0.0000
     17 N2          1.4238   -0.2520    4.8674 N.am      1 <0>         0.0000
     18 N3          1.7877    0.0290    3.5734 N.am      1 <0>         0.0000
     19 O1          0.3313    1.7736    5.1279 O.2       1 <0>         0.0000
     20 O2          1.7602   -2.2018    2.9407 O.2       1 <0>         0.0000
     21 O3          3.2186   -1.5159    0.7230 O.3       1 <0>         0.0000
     22 S1         -0.3102    3.4478    1.7590 S.3       1 <0>         0.0000
     23 Cl1        -0.3417   -3.0616    9.0174 Cl        1 <0>         0.0000
     24 H1         -0.4110    1.7011    9.9690 H         1 <0>         0.0000
     25 H2          0.2105    2.3426    7.6662 H         1 <0>         0.0000
     26 H3         -0.6583   -0.6779   10.5776 H         1 <0>         0.0000
     27 H4          0.3474   -1.8109    6.5438 H         1 <0>         0.0000
     28 H5         -0.6040    6.1923    2.7738 H         1 <0>         0.0000
     29 H6          0.6947    7.0236    1.9150 H         1 <0>         0.0000
     30 H7         -0.6232    6.2512    1.0077 H         1 <0>         0.0000
     31 H8          1.1011    4.7317    3.9969 H         1 <0>         0.0000
     32 H9          2.4261    5.5404    3.1569 H         1 <0>         0.0000
     33 H10         2.2708    3.7722    3.0836 H         1 <0>         0.0000
     34 H11        -0.6259    0.9652    0.2307 H         1 <0>         0.0000
     35 H12        -0.2197    0.5004    1.8688 H         1 <0>         0.0000
     36 H13         1.2423    2.5738    0.1722 H         1 <0>         0.0000
     37 H14         1.7108    2.1489    1.8142 H         1 <0>         0.0000
     38 H15         2.9484    0.3859    1.4229 H         1 <0>         0.0000
     39 H16         0.5915   -1.2082    0.2610 H         1 <0>         0.0000
     40 H17         1.4510    4.8315    0.9561 H         1 <0>         0.0000
     41 H18         0.8845    0.1717   -1.5934 H         1 <0>         0.0000
     42 H19         2.2416   -0.6802   -1.2969 H         1 <0>         0.0000
     43 H20         1.6871   -1.1312    5.2989 H         1 <0>         0.0000
     44 H21         1.9478    0.9869    3.2798 H         1 <0>         0.0000
     45 H22         2.7041   -2.3378    0.6655 H         1 <0>         0.0000
@<TRIPOS>BOND
     1    1    2 ar
     2    1    3 ar
     3    2    5 ar
     4    3    6 ar
     5    4    5 ar
     6    4    6 ar
     7    5    7 1
     8    6   23 1
     9    7   17 am
    10    7   19 2
    11    8   13 1
    12    8   18 am
    13    8   20 2
    14    9   15 1
    15   10   15 1
    16   11   12 1
    17   11   14 1
    18   12   22 1
    19   13   14 1
    20   13   21 1
    21   14   16 1
    22   15   22 1
    23   17   18 1
    24    1   24 1
    25    2   25 1
    26    3   26 1
    27    4   27 1
    28    9   28 1
    29    9   29 1
    30    9   30 1
    31   10   31 1
    32   10   32 1
    33   10   33 1
    34   11   34 1
    35   11   35 1
    36   12   36 1
    37   12   37 1
    38   13   38 1
    39   14   39 1
    40   15   40 1
    41   16   41 1
    42   16   42 1
    43   17   43 1
    44   18   44 1
    45   21   45 1
@<TRIPOS>MOLECULE
LIGAND
   45    45     0     0     0
SMALL
NO_CHARGES

@<TRIPOS>ATOM
      1 C1          1.7569    0.2637    9.6380 C.ar      1 <0>         0.0000
      2 C2          2.1789    0.5972    8.3510 C.ar      1 <0>         0.0000
      3 C3          0.5658   -0.4388    9.8212 C.ar      1 <0>         0.0000
      4 C4          0.2188   -0.4741    7.4305 C.ar      1 <0>         0.0000
      5 C5          1.4099    0.2284    7.2473 C.ar      1 <0>         0.0000
      6 C6         -0.2032   -0.8077    8.7175 C.ar      1 <0>         0.0000
      7 C7          1.8600    0.5847    5.8768 C.2       1 <0>         0.0000
      8 C8          1.9325   -1.0133    2.6768 C.2       1 <0>         0.0000
      9 C9         -4.0383    1.9882   -1.0273 C.3       1 <0>         0.0000
     10 C10        -3.4456    4.3900   -0.5583 C.3       1 <0>         0.0000
     11 C11         0.2195    0.8307    0.9188 C.3       1 <0>         0.0000
     12 C12        -1.0001    1.1700    0.0549 C.3       1 <0>         0.0000
     13 C13         2.3649   -0.5352    1.2935 C.3       1 <0>         0.0000
     14 C14         1.1534   -0.2750    0.3710 C.3       1 <0>         0.0000
     15 C15        -2.9141    2.9715   -0.7245 C.3       1 <0>         0.0000
     16 N1          1.6681    0.0834   -0.9557 N.3       1 <0>         0.0000
     17 N2          1.4238   -0.2520    4.8674 N.am      1 <0>         0.0000
     18 N3          1.7877    0.0290    3.5734 N.am      1 <0>         0.0000
     19 O1          2.5607    1.5803    5.7128 O.2       1 <0>         0.0000
     20 O2          1.7602   -2.2018    2.9407 O.2       1 <0>         0.0000
     21 O3          3.2186   -1.5159    0.7230 O.3       1 <0>         0.0000
     22 S1         -2.0492    2.4644    0.7791 S.3       1 <0>         0.0000
     23 Cl1        -1.6725   -1.6750    8.9443 Cl        1 <0>         0.0000
     24 H1          2.3559    0.5507   10.4971 H         1 <0>         0.0000
     25 H2          3.1088    1.1449    8.2210 H         1 <0>         0.0000
     26 H3          0.2496   -0.6918   10.8299 H         1 <0>         0.0000
     27 H4         -0.3788   -0.7611    6.5676 H         1 <0>         0.0000
     28 H5         -4.7755    1.9915   -0.2167 H         1 <0>         0.0000
     29 H6         -4.5662    2.2576   -1.9489 H         1 <0>         0.0000
     30 H7         -3.6673    0.9620   -1.1303 H         1 <0>         0.0000
     31 H8         -4.1737    4.4304    0.2595 H         1 <0>         0.0000
     32 H9         -3.9550    4.7339   -1.4654 H         1 <0>         0.0000
     33 H10        -2.6458    5.1012   -0.3221 H         1 <0>         0.0000
     34 H11        -0.1531    0.5335    1.9082 H         1 <0>         0.0000
     35 H12         0.7975    1.7493    1.0822 H         1 <0>         0.0000
     36 H13        -1.6176    0.2727   -0.0585 H         1 <0>         0.0000
     37 H14        -0.7009    1.4813   -0.9501 H         1 <0>         0.0000
     38 H15         2.9484    0.3859    1.4229 H         1 <0>         0.0000
     39 H16         0.5915   -1.2082    0.2610 H         1 <0>         0.0000
     40 H17        -2.1892    2.9529   -1.5453 H         1 <0>         0.0000
     41 H18         0.8845    0.1717   -1.5934 H         1 <0>         0.0000
     42 H19         2.2416   -0.6802   -1.2969 H         1 <0>         0.0000
     43 H20         0.8460   -1.0583    5.0782 H         1 <0>         0.0000
     44 H21         1.9478    0.9869    3.2798 H         1 <0>         0.0000
     45 H22         2.7041   -2.3378    0.6655 H         1 <0>         0.0000
@<TRIPOS>BOND
     1    1    2 ar
     2    1    3 ar
     3    2    5 ar
     4    3    6 ar
     5    4    5 ar
     6    4    6 ar
     7    5    7 1
     8    6   23 1
     9    7   17 am
    10    7   19 2
    11    8   13 1
    12    8   18 am
    13    8   20 2
    14    9   15 1
    15   10   15 1
    16   11   12 1
    17   11   14 1
    18   12   22 1
    19   13   14 1
    20   13   21 1
    21   14   16 1
    22   15   22 1
    23   17   18 1
    24    1   24 1
    25    2   25 1
    26    3   26 1
    27    4   27 1
    28    9   28 1
    29    9   29 1
    30    9   30 1
    31   10   31 1
    32   10   32 1
    33   10   33 1
    34   11   34 1
    35   11   35 1
    36   12   36 1
    37   12   37 1
    38   13   38 1
    39   14   39 1
    40   15   40 1
    41   16   41 1
    42   16   42 1
    43   17   43 1
    44   18   44 1
    45   21   45 1
@<TRIPOS>MOLECULE
LIGAND
   45    45     0     0     0
SMALL
NO_CHARGES

@<TRIPOS>ATOM
      1 C1          0.6903   -1.4334    8.8465 C.ar      1 <0>         0.0000
      2 C2          1.1123   -1.0980    7.5601 C.ar      1 <0>         0.0000
      3 C3          0.5659   -0.4424    9.8203 C.ar      1 <0>         0.0000
      4 C4          1.2856    1.2194    8.2211 C.ar      1 <0>         0.0000
      5 C5          1.4099    0.2284    7.2473 C.ar      1 <0>         0.0000
      6 C6          0.8636    0.8839    9.5076 C.ar      1 <0>         0.0000
      7 C7          1.8600    0.5847    5.8768 C.2       1 <0>         0.0000
      8 C8          1.9325   -1.0133    2.6768 C.2       1 <0>         0.0000
      9 C9         -3.5456    2.3208    3.0565 C.3       1 <0>         0.0000
     10 C10        -4.0220    0.6377    1.2453 C.3       1 <0>         0.0000
     11 C11         0.2195    0.8307    0.9188 C.3       1 <0>         0.0000
     12 C12        -1.0001    1.1700    0.0549 C.3       1 <0>         0.0000
     13 C13         2.3649   -0.5352    1.2935 C.3       1 <0>         0.0000
     14 C14         1.1534   -0.2750    0.3710 C.3       1 <0>         0.0000
     15 C15        -2.9459    1.4397    1.9673 C.3       1 <0>         0.0000
     16 N1          1.6681    0.0834   -0.9557 N.3       1 <0>         0.0000
     17 N2          1.4238   -0.2520    4.8674 N.am      1 <0>         0.0000
     18 N3          1.7877    0.0290    3.5734 N.am      1 <0>         0.0000
     19 O1          2.5607    1.5803    5.7128 O.2       1 <0>         0.0000
     20 O2          1.7602   -2.2018    2.9407 O.2       1 <0>         0.0000
     21 O3          3.2186   -1.5159    0.7230 O.3       1 <0>         0.0000
     22 S1         -2.0492    2.4644    0.7791 S.3       1 <0>         0.0000
     23 Cl1         0.7094    2.1063   10.7095 Cl        1 <0>         0.0000
     24 H1          0.4583   -2.4661    9.0897 H         1 <0>         0.0000
     25 H2          1.2054   -1.8791    6.8098 H         1 <0>         0.0000
     26 H3          0.2360   -0.7187   10.8184 H         1 <0>         0.0000
     27 H4          1.5180    2.2533    7.9741 H         1 <0>         0.0000
     28 H5         -4.2705    3.0197    2.6246 H         1 <0>         0.0000
     29 H6         -4.0763    1.7229    3.8059 H         1 <0>         0.0000
     30 H7         -2.7806    2.9152    3.5690 H         1 <0>         0.0000
     31 H8         -4.7543    1.3108    0.7855 H         1 <0>         0.0000
     32 H9         -4.5673   -0.0125    1.9385 H         1 <0>         0.0000
     33 H10        -3.6015    0.0146    0.4477 H         1 <0>         0.0000
     34 H11        -0.1531    0.5335    1.9082 H         1 <0>         0.0000
     35 H12         0.7975    1.7493    1.0822 H         1 <0>         0.0000
     36 H13        -1.6176    0.2727   -0.0585 H         1 <0>         0.0000
     37 H14        -0.7009    1.4813   -0.9501 H         1 <0>         0.0000
     38 H15         2.9484    0.3859    1.4229 H         1 <0>         0.0000
     39 H16         0.5915   -1.2082    0.2610 H         1 <0>         0.0000
     40 H17        -2.2253    0.7496    2.4190 H         1 <0>         0.0000
     41 H18         0.8845    0.1717   -1.5934 H         1 <0>         0.0000
     42 H19         2.2416   -0.6802   -1.2969 H         1 <0>         0.0000
     43 H20         0.8460   -1.0583    5.0782 H         1 <0>         0.0000
     44 H21         1.9478    0.9869    3.2798 H         1 <0>         0.0000
     45 H22         2.7041   -2.3378    0.6655 H         1 <0>         0.0000
@<TRIPOS>BOND
     1    1    2 ar
     2    1    3 ar
     3    2    5 ar
     4    3    6 ar
     5    4    5 ar
     6    4    6 ar
     7    5    7 1
     8    6   23 1
     9    7   17 am
    10    7   19 2
    11    8   13 1
    12    8   18 am
    13    8   20 2
    14    9   15 1
    15   10   15 1
    16   11   12 1
    17   11   14 1
    18   12   22 1
    19   13   14 1
    20   13   21 1
    21   14   16 1
    22   15   22 1
    23   17   18 1
    24    1   24 1
    25    2   25 1
    26    3   26 1
    27    4   27 1
    28    9   28 1
    29    9   29 1
    30    9   30 1
    31   10   31 1
    32   10   32 1
    33   10   33 1
    34   11   34 1
    35   11   35 1
    36   12   36 1
    37   12   37 1
    38   13   38 1
    39   14   39 1
    40   15   40 1
    41   16   41 1
    42   16   42 1
    43   17   43 1
    44   18   44 1
    45   21   45 1
@<TRIPOS>MOLECULE
LIGAND
   45    45     0     0     0
SMALL
NO_CHARGES

@<TRIPOS>ATOM
      1 C1          0.8626    0.8871    9.5064 C.ar      1 <0>         0.0000
      2 C2          1.2856    1.2206    8.2197 C.ar      1 <0>         0.0000
      3 C3          0.5640   -0.4388    9.8206 C.ar      1 <0>         0.0000
      4 C4          1.1113   -1.0975    7.5615 C.ar      1 <0>         0.0000
      5 C5          1.4099    0.2284    7.2473 C.ar      1 <0>         0.0000
      6 C6          0.6884   -1.4310    8.8482 C.ar      1 <0>         0.0000
      7 C7          1.8600    0.5847    5.8768 C.2       1 <0>         0.0000
      8 C8          1.9325   -1.0133    2.6768 C.2       1 <0>         0.0000
      9 C9         -4.0383    1.9882   -1.0273 C.3       1 <0>         0.0000
     10 C10        -3.4456    4.3900   -0.5583 C.3       1 <0>         0.0000
     11 C11         0.2195    0.8307    0.9188 C.3       1 <0>         0.0000
     12 C12        -1.0001    1.1700    0.0549 C.3       1 <0>         0.0000
     13 C13         2.3649   -0.5352    1.2935 C.3       1 <0>         0.0000
     14 C14         1.1534   -0.2750    0.3710 C.3       1 <0>         0.0000
     15 C15        -2.9141    2.9715   -0.7245 C.3       1 <0>         0.0000
     16 N1          1.6681    0.0834   -0.9557 N.3       1 <0>         0.0000
     17 N2          1.4238   -0.2520    4.8674 N.am      1 <0>         0.0000
     18 N3          1.7877    0.0290    3.5734 N.am      1 <0>         0.0000
     19 O1          2.5607    1.5803    5.7128 O.2       1 <0>         0.0000
     20 O2          1.7602   -2.2018    2.9407 O.2       1 <0>         0.0000
     21 O3          3.2186   -1.5159    0.7230 O.3       1 <0>         0.0000
     22 S1         -2.0492    2.4644    0.7791 S.3       1 <0>         0.0000
     23 Cl1         0.3202   -3.0669    9.2368 Cl        1 <0>         0.0000
     24 H1          0.7662    1.6597   10.2634 H         1 <0>         0.0000
     25 H2          1.5152    2.2572    7.9869 H         1 <0>         0.0000
     26 H3          0.2356   -0.6836   10.8274 H         1 <0>         0.0000
     27 H4          1.2098   -1.8695    6.8011 H         1 <0>         0.0000
     28 H5         -4.7755    1.9915   -0.2167 H         1 <0>         0.0000
     29 H6         -4.5662    2.2576   -1.9489 H         1 <0>         0.0000
     30 H7         -3.6673    0.9620   -1.1303 H         1 <0>         0.0000
     31 H8         -4.1737    4.4304    0.2595 H         1 <0>         0.0000
     32 H9         -3.9550    4.7339   -1.4654 H         1 <0>         0.0000
     33 H10        -2.6458    5.1012   -0.3221 H         1 <0>         0.0000
     34 H11        -0.1531    0.5335    1.9082 H         1 <0>         0.0000
     35 H12         0.7975    1.7493    1.0822 H         1 <0>         0.0000
     36 H13        -1.6176    0.2727   -0.0585 H         1 <0>         0.0000
     37 H14        -0.7009    1.4813   -0.9501 H         1 <0>         0.0000
     38 H15         2.9484    0.3859    1.4229 H         1 <0>         0.0000
     39 H16         0.5915   -1.2082    0.2610 H         1 <0>         0.0000
     40 H17        -2.1892    2.9529   -1.5453 H         1 <0>         0.0000
     41 H18         0.8845    0.1717   -1.5934 H         1 <0>         0.0000
     42 H19         2.2416   -0.6802   -1.2969 H         1 <0>         0.0000
     43 H20         0.8460   -1.0583    5.0782 H         1 <0>         0.0000
     44 H21         1.9478    0.9869    3.2798 H         1 <0>         0.0000
     45 H22         2.7041   -2.3378    0.6655 H         1 <0>         0.0000
@<TRIPOS>BOND
     1    1    2 ar
     2    1    3 ar
     3    2    5 ar
     4    3    6 ar
     5    4    5 ar
     6    4    6 ar
     7    5    7 1
     8    6   23 1
     9    7   17 am
    10    7   19 2
    11    8   13 1
    12    8   18 am
    13    8   20 2
    14    9   15 1
    15   10   15 1
    16   11   12 1
    17   11   14 1
    18   12   22 1
    19   13   14 1
    20   13   21 1
    21   14   16 1
    22   15   22 1
    23   17   18 1
    24    1   24 1
    25    2   25 1
    26    3   26 1
    27    4   27 1
    28    9   28 1
    29    9   29 1
    30    9   30 1
    31   10   31 1
    32   10   32 1
    33   10   33 1
    34   11   34 1
    35   11   35 1
    36   12   36 1
    37   12   37 1
    38   13   38 1
    39   14   39 1
    40   15   40 1
    41   16   41 1
    42   16   42 1
    43   17   43 1
    44   18   44 1
    45   21   45 1
@<TRIPOS>MOLECULE
LIGAND
   45    45     0     0     0
SMALL
NO_CHARGES

@<TRIPOS>ATOM
      1 C1         -0.8688   -1.7203    8.2676 C.ar      1 <0>         0.0000
      2 C2         -0.4721   -1.3756    6.9756 C.ar      1 <0>         0.0000
      3 C3         -1.6746   -0.8524    9.0047 C.ar      1 <0>         0.0000
      4 C4         -1.6869    0.7048    7.1576 C.ar      1 <0>         0.0000
      5 C5         -0.8811   -0.1631    6.4206 C.ar      1 <0>         0.0000
      6 C6         -2.0836    0.3601    8.4497 C.ar      1 <0>         0.0000
      7 C7         -0.4576    0.2036    5.0443 C.2       1 <0>         0.0000
      8 C8          1.9325   -1.0133    2.6768 C.2       1 <0>         0.0000
      9 C9         -2.8125    0.5348   -2.7511 C.3       1 <0>         0.0000
     10 C10        -2.5812    3.0315   -2.9817 C.3       1 <0>         0.0000
     11 C11         1.5761    0.1765   -1.0474 C.3       1 <0>         0.0000
     12 C12         0.4360    0.4372   -2.0380 C.3       1 <0>         0.0000
     13 C13         2.3649   -0.5352    1.2935 C.3       1 <0>         0.0000
     14 C14         1.1534   -0.2750    0.3710 C.3       1 <0>         0.0000
     15 C15        -1.8423    1.7019   -2.8899 C.3       1 <0>         0.0000
     16 N1          0.3597   -1.5080    0.3138 N.3       1 <0>         0.0000
     17 N2          0.7320   -0.3536    4.6161 N.am      1 <0>         0.0000
     18 N3          1.1743   -0.0714    3.3469 N.am      1 <0>         0.0000
     19 O1         -1.1696    0.9461    4.3728 O.2       1 <0>         0.0000
     20 O2          2.2555   -2.1109    3.1269 O.2       1 <0>         0.0000
     21 O3          3.2186   -1.5159    0.7230 O.3       1 <0>         0.0000
     22 S1         -0.7139    1.7277   -1.4786 S.3       1 <0>         0.0000
     23 Cl1        -3.0783    1.4303    9.3596 Cl        1 <0>         0.0000
     24 H1         -0.5505   -2.6646    8.6994 H         1 <0>         0.0000
     25 H2          0.1559   -2.0601    6.4111 H         1 <0>         0.0000
     26 H3         -1.9758   -1.1345   10.0103 H         1 <0>         0.0000
     27 H4         -2.0049    1.6499    6.7219 H         1 <0>         0.0000
     28 H5         -3.4266    0.6553   -1.8516 H         1 <0>         0.0000
     29 H6         -3.4950    0.4797   -3.6065 H         1 <0>         0.0000
     30 H7         -2.2889   -0.4243   -2.6659 H         1 <0>         0.0000
     31 H8         -3.1918    3.1904   -2.0858 H         1 <0>         0.0000
     32 H9         -3.2564    3.0539   -3.8443 H         1 <0>         0.0000
     33 H10        -1.8903    3.8784   -3.0633 H         1 <0>         0.0000
     34 H11         2.1631    1.1018   -0.9736 H         1 <0>         0.0000
     35 H12         2.2520   -0.5707   -1.4824 H         1 <0>         0.0000
     36 H13        -0.1421   -0.4839   -2.1668 H         1 <0>         0.0000
     37 H14         0.8216    0.7132   -3.0237 H         1 <0>         0.0000
     38 H15         2.9484    0.3859    1.4229 H         1 <0>         0.0000
     39 H16         0.5249    0.4957    0.8291 H         1 <0>         0.0000
     40 H17        -1.2390    1.5625   -3.7933 H         1 <0>         0.0000
     41 H18        -0.4842   -1.3249   -0.2178 H         1 <0>         0.0000
     42 H19         0.0690   -1.7492    1.2550 H         1 <0>         0.0000
     43 H20         1.2684   -0.9594    5.2274 H         1 <0>         0.0000
     44 H21         0.9480    0.8148    2.9078 H         1 <0>         0.0000
     45 H22         2.7041   -2.3378    0.6655 H         1 <0>         0.0000
@<TRIPOS>BOND
     1    1    2 ar
     2    1    3 ar
     3    2    5 ar
     4    3    6 ar
     5    4    5 ar
     6    4    6 ar
     7    5    7 1
     8    6   23 1
     9    7   17 am
    10    7   19 2
    11    8   13 1
    12    8   18 am
    13    8   20 2
    14    9   15 1
    15   10   15 1
    16   11   12 1
    17   11   14 1
    18   12   22 1
    19   13   14 1
    20   13   21 1
    21   14   16 1
    22   15   22 1
    23   17   18 1
    24    1   24 1
    25    2   25 1
    26    3   26 1
    27    4   27 1
    28    9   28 1
    29    9   29 1
    30    9   30 1
    31   10   31 1
    32   10   32 1
    33   10   33 1
    34   11   34 1
    35   11   35 1
    36   12   36 1
    37   12   37 1
    38   13   38 1
    39   14   39 1
    40   15   40 1
    41   16   41 1
    42   16   42 1
    43   17   43 1
    44   18   44 1
    45   21   45 1
@<TRIPOS>MOLECULE
LIGAND
   45    45     0     0     0
SMALL
NO_CHARGES

@<TRIPOS>ATOM
      1 C1         -0.2959   -1.7283    8.4655 C.ar      1 <0>         0.0000
      2 C2          0.0807   -1.4558    7.1504 C.ar      1 <0>         0.0000
      3 C3         -1.6473   -1.8121    8.8008 C.ar      1 <0>         0.0000
      4 C4         -2.2454   -1.3505    6.5060 C.ar      1 <0>         0.0000
      5 C5         -0.8940   -1.2668    6.1707 C.ar      1 <0>         0.0000
      6 C6         -2.6221   -1.6232    7.8211 C.ar      1 <0>         0.0000
      7 C7         -0.4919   -0.9759    4.7701 C.2       1 <0>         0.0000
      8 C8          1.9325   -1.0133    2.6768 C.2       1 <0>         0.0000
      9 C9         -3.1756    2.3246   -2.4935 C.3       1 <0>         0.0000
     10 C10        -1.2120    2.4385   -4.0656 C.3       1 <0>         0.0000
     11 C11         1.5761    0.1765   -1.0474 C.3       1 <0>         0.0000
     12 C12         0.4360    0.4372   -2.0380 C.3       1 <0>         0.0000
     13 C13         2.3649   -0.5352    1.2935 C.3       1 <0>         0.0000
     14 C14         1.1534   -0.2750    0.3710 C.3       1 <0>         0.0000
     15 C15        -1.8423    1.7019   -2.8899 C.3       1 <0>         0.0000
     16 N1          0.3597   -1.5080    0.3138 N.3       1 <0>         0.0000
     17 N2          0.7320   -0.3536    4.6161 N.am      1 <0>         0.0000
     18 N3          1.1743   -0.0714    3.3469 N.am      1 <0>         0.0000
     19 O1         -1.2351   -1.3059    3.8493 O.2       1 <0>         0.0000
     20 O2          2.2555   -2.1109    3.1269 O.2       1 <0>         0.0000
     21 O3          3.2186   -1.5159    0.7230 O.3       1 <0>         0.0000
     22 S1         -0.7139    1.7277   -1.4786 S.3       1 <0>         0.0000
     23 Cl1        -4.2894   -1.7271    8.2355 Cl        1 <0>         0.0000
     24 H1          0.4631   -1.8757    9.2280 H         1 <0>         0.0000
     25 H2          1.1369   -1.3929    6.9013 H         1 <0>         0.0000
     26 H3         -1.9258   -2.0251    9.8297 H         1 <0>         0.0000
     27 H4         -3.0036   -1.2033    5.7395 H         1 <0>         0.0000
     28 H5         -3.0368    3.3747   -2.2131 H         1 <0>         0.0000
     29 H6         -3.8895    2.3010   -3.3245 H         1 <0>         0.0000
     30 H7         -3.6275    1.8123   -1.6365 H         1 <0>         0.0000
     31 H8         -1.0430    3.4904   -3.8095 H         1 <0>         0.0000
     32 H9         -1.8649    2.4183   -4.9453 H         1 <0>         0.0000
     33 H10        -0.2436    2.0085   -4.3458 H         1 <0>         0.0000
     34 H11         2.1631    1.1018   -0.9736 H         1 <0>         0.0000
     35 H12         2.2520   -0.5707   -1.4824 H         1 <0>         0.0000
     36 H13        -0.1421   -0.4839   -2.1668 H         1 <0>         0.0000
     37 H14         0.8216    0.7132   -3.0237 H         1 <0>         0.0000
     38 H15         2.9484    0.3859    1.4229 H         1 <0>         0.0000
     39 H16         0.5249    0.4957    0.8291 H         1 <0>         0.0000
     40 H17        -2.0027    0.6542   -3.1661 H         1 <0>         0.0000
     41 H18        -0.4842   -1.3249   -0.2178 H         1 <0>         0.0000
     42 H19         0.0690   -1.7492    1.2550 H         1 <0>         0.0000
     43 H20         1.2931   -0.1098    5.4249 H         1 <0>         0.0000
     44 H21         0.9480    0.8148    2.9078 H         1 <0>         0.0000
     45 H22         2.7041   -2.3378    0.6655 H         1 <0>         0.0000
@<TRIPOS>BOND
     1    1    2 ar
     2    1    3 ar
     3    2    5 ar
     4    3    6 ar
     5    4    5 ar
     6    4    6 ar
     7    5    7 1
     8    6   23 1
     9    7   17 am
    10    7   19 2
    11    8   13 1
    12    8   18 am
    13    8   20 2
    14    9   15 1
    15   10   15 1
    16   11   12 1
    17   11   14 1
    18   12   22 1
    19   13   14 1
    20   13   21 1
    21   14   16 1
    22   15   22 1
    23   17   18 1
    24    1   24 1
    25    2   25 1
    26    3   26 1
    27    4   27 1
    28    9   28 1
    29    9   29 1
    30    9   30 1
    31   10   31 1
    32   10   32 1
    33   10   33 1
    34   11   34 1
    35   11   35 1
    36   12   36 1
    37   12   37 1
    38   13   38 1
    39   14   39 1
    40   15   40 1
    41   16   41 1
    42   16   42 1
    43   17   43 1
    44   18   44 1
    45   21   45 1
@<TRIPOS>MOLECULE
LIGAND
   45    45     0     0     0
SMALL
NO_CHARGES

@<TRIPOS>ATOM
      1 C1          2.3780   -0.2776    9.6931 C.ar      1 <0>         0.0000
      2 C2          2.6800    0.1631    8.4046 C.ar      1 <0>         0.0000
      3 C3          2.1604   -1.6343    9.9331 C.ar      1 <0>         0.0000
      4 C4          2.5467   -2.1098    7.5961 C.ar      1 <0>         0.0000
      5 C5          2.7643   -0.7530    7.3561 C.ar      1 <0>         0.0000
      6 C6          2.2447   -2.5504    8.8846 C.ar      1 <0>         0.0000
      7 C7          3.0854   -0.2826    5.9837 C.2       1 <0>         0.0000
      8 C8          1.9325   -1.0133    2.6768 C.2       1 <0>         0.0000
      9 C9         -2.0930    0.1515   -2.9182 C.3       1 <0>         0.0000
     10 C10        -4.3052   -0.3408   -1.8209 C.3       1 <0>         0.0000
     11 C11         0.2195    0.8307    0.9188 C.3       1 <0>         0.0000
     12 C12        -1.0001    1.1700    0.0549 C.3       1 <0>         0.0000
     13 C13         2.3649   -0.5352    1.2935 C.3       1 <0>         0.0000
     14 C14         1.1534   -0.2750    0.3710 C.3       1 <0>         0.0000
     15 C15        -2.9606    0.3632   -1.6834 C.3       1 <0>         0.0000
     16 N1          1.6681    0.0834   -0.9557 N.3       1 <0>         0.0000
     17 N2          2.6023   -1.0670    4.9540 N.am      1 <0>         0.0000
     18 N3          2.8469   -0.6810    3.6590 N.am      1 <0>         0.0000
     19 O1          3.7293    0.7533    5.8374 O.2       1 <0>         0.0000
     20 O2          0.8915   -1.6405    2.8632 O.2       1 <0>         0.0000
     21 O3          3.2186   -1.5159    0.7230 O.3       1 <0>         0.0000
     22 S1         -2.0977   -0.2515   -0.2193 S.3       1 <0>         0.0000
     23 Cl1         1.9766   -4.2245    9.1816 Cl        1 <0>         0.0000
     24 H1          2.3127    0.4358   10.5093 H         1 <0>         0.0000
     25 H2          2.8474    1.2228    8.2300 H         1 <0>         0.0000
     26 H3          1.9260   -1.9630   10.9423 H         1 <0>         0.0000
     27 H4          2.6137   -2.8222    6.7763 H         1 <0>         0.0000
     28 H5         -1.9123   -0.9173   -3.0778 H         1 <0>         0.0000
     29 H6         -2.5817    0.5374   -3.8198 H         1 <0>         0.0000
     30 H7         -1.1164    0.6393   -2.8203 H         1 <0>         0.0000
     31 H8         -4.1585   -1.4173   -1.9636 H         1 <0>         0.0000
     32 H9         -4.8626    0.0299   -2.6884 H         1 <0>         0.0000
     33 H10        -4.9288   -0.2091   -0.9293 H         1 <0>         0.0000
     34 H11        -0.1531    0.5335    1.9082 H         1 <0>         0.0000
     35 H12         0.7975    1.7493    1.0822 H         1 <0>         0.0000
     36 H13        -0.6573    1.5138   -0.9268 H         1 <0>         0.0000
     37 H14        -1.5832    1.9849    0.4933 H         1 <0>         0.0000
     38 H15         2.9484    0.3859    1.4229 H         1 <0>         0.0000
     39 H16         0.5915   -1.2082    0.2610 H         1 <0>         0.0000
     40 H17        -3.1292    1.4361   -1.5418 H         1 <0>         0.0000
     41 H18         0.8845    0.1717   -1.5934 H         1 <0>         0.0000
     42 H19         2.2416   -0.6802   -1.2969 H         1 <0>         0.0000
     43 H20         2.0769   -1.9119    5.1509 H         1 <0>         0.0000
     44 H21         3.6858   -0.1599    3.4266 H         1 <0>         0.0000
     45 H22         2.7041   -2.3378    0.6655 H         1 <0>         0.0000
@<TRIPOS>BOND
     1    1    2 ar
     2    1    3 ar
     3    2    5 ar
     4    3    6 ar
     5    4    5 ar
     6    4    6 ar
     7    5    7 1
     8    6   23 1
     9    7   17 am
    10    7   19 2
    11    8   13 1
    12    8   18 am
    13    8   20 2
    14    9   15 1
    15   10   15 1
    16   11   12 1
    17   11   14 1
    18   12   22 1
    19   13   14 1
    20   13   21 1
    21   14   16 1
    22   15   22 1
    23   17   18 1
    24    1   24 1
    25    2   25 1
    26    3   26 1
    27    4   27 1
    28    9   28 1
    29    9   29 1
    30    9   30 1
    31   10   31 1
    32   10   32 1
    33   10   33 1
    34   11   34 1
    35   11   35 1
    36   12   36 1
    37   12   37 1
    38   13   38 1
    39   14   39 1
    40   15   40 1
    41   16   41 1
    42   16   42 1
    43   17   43 1
    44   18   44 1
    45   21   45 1
@<TRIPOS>MOLECULE
LIGAND
   45    45     0     0     0
SMALL
NO_CHARGES

@<TRIPOS>ATOM
      1 C1          1.7569    0.2637    9.6380 C.ar      1 <0>         0.0000
      2 C2          2.1789    0.5972    8.3510 C.ar      1 <0>         0.0000
      3 C3          0.5658   -0.4388    9.8212 C.ar      1 <0>         0.0000
      4 C4          0.2188   -0.4741    7.4305 C.ar      1 <0>         0.0000
      5 C5          1.4099    0.2284    7.2473 C.ar      1 <0>         0.0000
      6 C6         -0.2032   -0.8077    8.7175 C.ar      1 <0>         0.0000
      7 C7          1.8600    0.5847    5.8768 C.2       1 <0>         0.0000
      8 C8          1.9325   -1.0133    2.6768 C.2       1 <0>         0.0000
      9 C9         -3.5456    2.3208    3.0565 C.3       1 <0>         0.0000
     10 C10        -4.0220    0.6377    1.2453 C.3       1 <0>         0.0000
     11 C11         0.2195    0.8307    0.9188 C.3       1 <0>         0.0000
     12 C12        -1.0001    1.1700    0.0549 C.3       1 <0>         0.0000
     13 C13         2.3649   -0.5352    1.2935 C.3       1 <0>         0.0000
     14 C14         1.1534   -0.2750    0.3710 C.3       1 <0>         0.0000
     15 C15        -2.9459    1.4397    1.9673 C.3       1 <0>         0.0000
     16 N1          1.6681    0.0834   -0.9557 N.3       1 <0>         0.0000
     17 N2          1.4238   -0.2520    4.8674 N.am      1 <0>         0.0000
     18 N3          1.7877    0.0290    3.5734 N.am      1 <0>         0.0000
     19 O1          2.5607    1.5803    5.7128 O.2       1 <0>         0.0000
     20 O2          1.7602   -2.2018    2.9407 O.2       1 <0>         0.0000
     21 O3          3.2186   -1.5159    0.7230 O.3       1 <0>         0.0000
     22 S1         -2.0492    2.4644    0.7791 S.3       1 <0>         0.0000
     23 Cl1        -1.6725   -1.6750    8.9443 Cl        1 <0>         0.0000
     24 H1          2.3559    0.5507   10.4971 H         1 <0>         0.0000
     25 H2          3.1088    1.1449    8.2210 H         1 <0>         0.0000
     26 H3          0.2496   -0.6918   10.8299 H         1 <0>         0.0000
     27 H4         -0.3788   -0.7611    6.5676 H         1 <0>         0.0000
     28 H5         -4.2705    3.0197    2.6246 H         1 <0>         0.0000
     29 H6         -4.0763    1.7229    3.8059 H         1 <0>         0.0000
     30 H7         -2.7806    2.9152    3.5690 H         1 <0>         0.0000
     31 H8         -4.7543    1.3108    0.7855 H         1 <0>         0.0000
     32 H9         -4.5673   -0.0125    1.9385 H         1 <0>         0.0000
     33 H10        -3.6015    0.0146    0.4477 H         1 <0>         0.0000
     34 H11        -0.1531    0.5335    1.9082 H         1 <0>         0.0000
     35 H12         0.7975    1.7493    1.0822 H         1 <0>         0.0000
     36 H13        -1.6176    0.2727   -0.0585 H         1 <0>         0.0000
     37 H14        -0.7009    1.4813   -0.9501 H         1 <0>         0.0000
     38 H15         2.9484    0.3859    1.4229 H         1 <0>         0.0000
     39 H16         0.5915   -1.2082    0.2610 H         1 <0>         0.0000
     40 H17        -2.2253    0.7496    2.4190 H         1 <0>         0.0000
     41 H18         0.8845    0.1717   -1.5934 H         1 <0>         0.0000
     42 H19         2.2416   -0.6802   -1.2969 H         1 <0>         0.0000
     43 H20         0.8460   -1.0583    5.0782 H         1 <0>         0.0000
     44 H21         1.9478    0.9869    3.2798 H         1 <0>         0.0000
     45 H22         2.7041   -2.3378    0.6655 H         1 <0>         0.0000
@<TRIPOS>BOND
     1    1    2 ar
     2    1    3 ar
     3    2    5 ar
     4    3    6 ar
     5    4    5 ar
     6    4    6 ar
     7    5    7 1
     8    6   23 1
     9    7   17 am
    10    7   19 2
    11    8   13 1
    12    8   18 am
    13    8   20 2
    14    9   15 1
    15   10   15 1
    16   11   12 1
    17   11   14 1
    18   12   22 1
    19   13   14 1
    20   13   21 1
    21   14   16 1
    22   15   22 1
    23   17   18 1
    24    1   24 1
    25    2   25 1
    26    3   26 1
    27    4   27 1
    28    9   28 1
    29    9   29 1
    30    9   30 1
    31   10   31 1
    32   10   32 1
    33   10   33 1
    34   11   34 1
    35   11   35 1
    36   12   36 1
    37   12   37 1
    38   13   38 1
    39   14   39 1
    40   15   40 1
    41   16   41 1
    42   16   42 1
    43   17   43 1
    44   18   44 1
    45   21   45 1
@<TRIPOS>MOLECULE
LIGAND
   45    45     0     0     0
SMALL
NO_CHARGES

@<TRIPOS>ATOM
      1 C1          2.2867   -1.8006    9.3387 C.ar      1 <0>         0.0000
      2 C2          2.7263   -1.5405    8.0408 C.ar      1 <0>         0.0000
      3 C3          1.0666   -1.2866    9.7779 C.ar      1 <0>         0.0000
      4 C4          0.7260   -0.2522    7.6213 C.ar      1 <0>         0.0000
      5 C5          1.9460   -0.7663    7.1821 C.ar      1 <0>         0.0000
      6 C6          0.2863   -0.5124    8.9192 C.ar      1 <0>         0.0000
      7 C7          2.4155   -0.4891    5.7998 C.2       1 <0>         0.0000
      8 C8          1.9325   -1.0133    2.6768 C.2       1 <0>         0.0000
      9 C9         -3.5456    2.3208    3.0565 C.3       1 <0>         0.0000
     10 C10        -4.0220    0.6377    1.2453 C.3       1 <0>         0.0000
     11 C11         0.2195    0.8307    0.9188 C.3       1 <0>         0.0000
     12 C12        -1.0001    1.1700    0.0549 C.3       1 <0>         0.0000
     13 C13         2.3649   -0.5352    1.2935 C.3       1 <0>         0.0000
     14 C14         1.1534   -0.2750    0.3710 C.3       1 <0>         0.0000
     15 C15        -2.9459    1.4397    1.9673 C.3       1 <0>         0.0000
     16 N1          1.6681    0.0834   -0.9557 N.3       1 <0>         0.0000
     17 N2          1.4238   -0.2520    4.8674 N.am      1 <0>         0.0000
     18 N3          1.7877    0.0290    3.5734 N.am      1 <0>         0.0000
     19 O1          3.6213   -0.4699    5.5658 O.2       1 <0>         0.0000
     20 O2          1.7602   -2.2018    2.9407 O.2       1 <0>         0.0000
     21 O3          3.2186   -1.5159    0.7230 O.3       1 <0>         0.0000
     22 S1         -2.0492    2.4644    0.7791 S.3       1 <0>         0.0000
     23 Cl1        -1.2194    0.1212    9.4617 Cl        1 <0>         0.0000
     24 H1          2.8942   -2.4037   10.0070 H         1 <0>         0.0000
     25 H2          3.6789   -1.9464    7.7100 H         1 <0>         0.0000
     26 H3          0.7369   -1.4976   10.7919 H         1 <0>         0.0000
     27 H4          0.1191    0.3510    6.9490 H         1 <0>         0.0000
     28 H5         -4.2705    3.0197    2.6246 H         1 <0>         0.0000
     29 H6         -4.0763    1.7229    3.8059 H         1 <0>         0.0000
     30 H7         -2.7806    2.9152    3.5690 H         1 <0>         0.0000
     31 H8         -4.7543    1.3108    0.7855 H         1 <0>         0.0000
     32 H9         -4.5673   -0.0125    1.9385 H         1 <0>         0.0000
     33 H10        -3.6015    0.0146    0.4477 H         1 <0>         0.0000
     34 H11        -0.1531    0.5335    1.9082 H         1 <0>         0.0000
     35 H12         0.7975    1.7493    1.0822 H         1 <0>         0.0000
     36 H13        -1.6176    0.2727   -0.0585 H         1 <0>         0.0000
     37 H14        -0.7009    1.4813   -0.9501 H         1 <0>         0.0000
     38 H15         2.9484    0.3859    1.4229 H         1 <0>         0.0000
     39 H16         0.5915   -1.2082    0.2610 H         1 <0>         0.0000
     40 H17        -2.2253    0.7496    2.4190 H         1 <0>         0.0000
     41 H18         0.8845    0.1717   -1.5934 H         1 <0>         0.0000
     42 H19         2.2416   -0.6802   -1.2969 H         1 <0>         0.0000
     43 H20         0.4458   -0.2847    5.1337 H         1 <0>         0.0000
     44 H21         1.9478    0.9869    3.2798 H         1 <0>         0.0000
     45 H22         2.7041   -2.3378    0.6655 H         1 <0>         0.0000
@<TRIPOS>BOND
     1    1    2 ar
     2    1    3 ar
     3    2    5 ar
     4    3    6 ar
     5    4    5 ar
     6    4    6 ar
     7    5    7 1
     8    6   23 1
     9    7   17 am
    10    7   19 2
    11    8   13 1
    12    8   18 am
    13    8   20 2
    14    9   15 1
    15   10   15 1
    16   11   12 1
    17   11   14 1
    18   12   22 1
    19   13   14 1
    20   13   21 1
    21   14   16 1
    22   15   22 1
    23   17   18 1
    24    1   24 1
    25    2   25 1
    26    3   26 1
    27    4   27 1
    28    9   28 1
    29    9   29 1
    30    9   30 1
    31   10   31 1
    32   10   32 1
    33   10   33 1
    34   11   34 1
    35   11   35 1
    36   12   36 1
    37   12   37 1
    38   13   38 1
    39   14   39 1
    40   15   40 1
    41   16   41 1
    42   16   42 1
    43   17   43 1
    44   18   44 1
    45   21   45 1
@<TRIPOS>MOLECULE
LIGAND
   45    45     0     0     0
SMALL
NO_CHARGES

@<TRIPOS>ATOM
      1 C1         -0.8688   -1.7203    8.2676 C.ar      1 <0>         0.0000
      2 C2         -0.4721   -1.3756    6.9756 C.ar      1 <0>         0.0000
      3 C3         -1.6746   -0.8524    9.0047 C.ar      1 <0>         0.0000
      4 C4         -1.6869    0.7048    7.1576 C.ar      1 <0>         0.0000
      5 C5         -0.8811   -0.1631    6.4206 C.ar      1 <0>         0.0000
      6 C6         -2.0836    0.3601    8.4497 C.ar      1 <0>         0.0000
      7 C7         -0.4576    0.2036    5.0443 C.2       1 <0>         0.0000
      8 C8          1.9325   -1.0133    2.6768 C.2       1 <0>         0.0000
      9 C9          0.1128    3.4388   -3.4370 C.3       1 <0>         0.0000
     10 C10        -0.1648    4.3761   -1.1165 C.3       1 <0>         0.0000
     11 C11         1.5761    0.1765   -1.0474 C.3       1 <0>         0.0000
     12 C12         0.4360    0.4372   -2.0380 C.3       1 <0>         0.0000
     13 C13         2.3649   -0.5352    1.2935 C.3       1 <0>         0.0000
     14 C14         1.1534   -0.2750    0.3710 C.3       1 <0>         0.0000
     15 C15         0.2674    3.1720   -1.9445 C.3       1 <0>         0.0000
     16 N1          0.3597   -1.5080    0.3138 N.3       1 <0>         0.0000
     17 N2          0.7320   -0.3536    4.6161 N.am      1 <0>         0.0000
     18 N3          1.1743   -0.0714    3.3469 N.am      1 <0>         0.0000
     19 O1         -1.1696    0.9461    4.3728 O.2       1 <0>         0.0000
     20 O2          2.2555   -2.1109    3.1269 O.2       1 <0>         0.0000
     21 O3          3.2186   -1.5159    0.7230 O.3       1 <0>         0.0000
     22 S1         -0.7139    1.7277   -1.4786 S.3       1 <0>         0.0000
     23 Cl1        -3.0783    1.4303    9.3596 Cl        1 <0>         0.0000
     24 H1         -0.5505   -2.6646    8.6994 H         1 <0>         0.0000
     25 H2          0.1559   -2.0601    6.4111 H         1 <0>         0.0000
     26 H3         -1.9758   -1.1345   10.0103 H         1 <0>         0.0000
     27 H4         -2.0049    1.6499    6.7219 H         1 <0>         0.0000
     28 H5         -0.9313    3.6698   -3.6761 H         1 <0>         0.0000
     29 H6          0.7168    4.2965   -3.7534 H         1 <0>         0.0000
     30 H7          0.4041    2.5712   -4.0399 H         1 <0>         0.0000
     31 H8         -1.2132    4.6215   -1.3199 H         1 <0>         0.0000
     32 H9          0.4307    5.2627   -1.3609 H         1 <0>         0.0000
     33 H10        -0.0742    4.1863   -0.0408 H         1 <0>         0.0000
     34 H11         2.1631    1.1018   -0.9736 H         1 <0>         0.0000
     35 H12         2.2520   -0.5707   -1.4824 H         1 <0>         0.0000
     36 H13        -0.1421   -0.4839   -2.1668 H         1 <0>         0.0000
     37 H14         0.8216    0.7132   -3.0237 H         1 <0>         0.0000
     38 H15         2.9484    0.3859    1.4229 H         1 <0>         0.0000
     39 H16         0.5249    0.4957    0.8291 H         1 <0>         0.0000
     40 H17         1.3162    2.9436   -1.7268 H         1 <0>         0.0000
     41 H18        -0.4842   -1.3249   -0.2178 H         1 <0>         0.0000
     42 H19         0.0690   -1.7492    1.2550 H         1 <0>         0.0000
     43 H20         1.2684   -0.9594    5.2274 H         1 <0>         0.0000
     44 H21         0.9480    0.8148    2.9078 H         1 <0>         0.0000
     45 H22         2.7041   -2.3378    0.6655 H         1 <0>         0.0000
@<TRIPOS>BOND
     1    1    2 ar
     2    1    3 ar
     3    2    5 ar
     4    3    6 ar
     5    4    5 ar
     6    4    6 ar
     7    5    7 1
     8    6   23 1
     9    7   17 am
    10    7   19 2
    11    8   13 1
    12    8   18 am
    13    8   20 2
    14    9   15 1
    15   10   15 1
    16   11   12 1
    17   11   14 1
    18   12   22 1
    19   13   14 1
    20   13   21 1
    21   14   16 1
    22   15   22 1
    23   17   18 1
    24    1   24 1
    25    2   25 1
    26    3   26 1
    27    4   27 1
    28    9   28 1
    29    9   29 1
    30    9   30 1
    31   10   31 1
    32   10   32 1
    33   10   33 1
    34   11   34 1
    35   11   35 1
    36   12   36 1
    37   12   37 1
    38   13   38 1
    39   14   39 1
    40   15   40 1
    41   16   41 1
    42   16   42 1
    43   17   43 1
    44   18   44 1
    45   21   45 1
@<TRIPOS>MOLECULE
LIGAND
   45    45     0     0     0
SMALL
NO_CHARGES

@<TRIPOS>ATOM
      1 C1          1.7949   -2.7138    8.7492 C.ar      1 <0>         0.0000
      2 C2          2.1171   -2.3438    7.4435 C.ar      1 <0>         0.0000
      3 C3          2.6888   -2.4547    9.7883 C.ar      1 <0>         0.0000
      4 C4          4.2272   -1.4558    8.2158 C.ar      1 <0>         0.0000
      5 C5          3.3333   -1.7148    7.1768 C.ar      1 <0>         0.0000
      6 C6          3.9049   -1.8257    9.5216 C.ar      1 <0>         0.0000
      7 C7          3.6760   -1.3216    5.7855 C.2       1 <0>         0.0000
      8 C8          1.9325   -1.0133    2.6768 C.2       1 <0>         0.0000
      9 C9         -4.5752    3.1779    0.0331 C.3       1 <0>         0.0000
     10 C10        -2.7668    3.3107   -1.7140 C.3       1 <0>         0.0000
     11 C11         0.2195    0.8307    0.9188 C.3       1 <0>         0.0000
     12 C12        -1.0001    1.1700    0.0549 C.3       1 <0>         0.0000
     13 C13         2.3649   -0.5352    1.2935 C.3       1 <0>         0.0000
     14 C14         1.1534   -0.2750    0.3710 C.3       1 <0>         0.0000
     15 C15        -3.3066    2.5373   -0.5169 C.3       1 <0>         0.0000
     16 N1          1.6681    0.0834   -0.9557 N.3       1 <0>         0.0000
     17 N2          2.6023   -1.0670    4.9540 N.am      1 <0>         0.0000
     18 N3          2.8469   -0.6810    3.6590 N.am      1 <0>         0.0000
     19 O1          4.8567   -1.2304    5.4589 O.2       1 <0>         0.0000
     20 O2          0.8915   -1.6405    2.8632 O.2       1 <0>         0.0000
     21 O3          3.2186   -1.5159    0.7230 O.3       1 <0>         0.0000
     22 S1         -2.0492    2.4644    0.7791 S.3       1 <0>         0.0000
     23 Cl1         5.0072   -1.5059   10.8043 Cl        1 <0>         0.0000
     24 H1          0.8479   -3.2031    8.9567 H         1 <0>         0.0000
     25 H2          1.4125   -2.5511    6.6423 H         1 <0>         0.0000
     26 H3          2.4241   -2.7487   10.8007 H         1 <0>         0.0000
     27 H4          5.1749   -0.9645    8.0049 H         1 <0>         0.0000
     28 H5         -4.3764    4.2092    0.3452 H         1 <0>         0.0000
     29 H6         -5.3650    3.2137   -0.7256 H         1 <0>         0.0000
     30 H7         -4.9604    2.6385    0.9059 H         1 <0>         0.0000
     31 H8         -2.5401    4.3441   -1.4288 H         1 <0>         0.0000
     32 H9         -3.5004    3.3505   -2.5268 H         1 <0>         0.0000
     33 H10        -1.8438    2.8672   -2.1048 H         1 <0>         0.0000
     34 H11        -0.1531    0.5335    1.9082 H         1 <0>         0.0000
     35 H12         0.7975    1.7493    1.0822 H         1 <0>         0.0000
     36 H13        -1.6176    0.2727   -0.0585 H         1 <0>         0.0000
     37 H14        -0.7009    1.4813   -0.9501 H         1 <0>         0.0000
     38 H15         2.9484    0.3859    1.4229 H         1 <0>         0.0000
     39 H16         0.5915   -1.2082    0.2610 H         1 <0>         0.0000
     40 H17        -3.5264    1.5088   -0.8227 H         1 <0>         0.0000
     41 H18         0.8845    0.1717   -1.5934 H         1 <0>         0.0000
     42 H19         2.2416   -0.6802   -1.2969 H         1 <0>         0.0000
     43 H20         1.6516   -1.1634    5.2936 H         1 <0>         0.0000
     44 H21         3.6858   -0.1599    3.4266 H         1 <0>         0.0000
     45 H22         2.7041   -2.3378    0.6655 H         1 <0>         0.0000
@<TRIPOS>BOND
     1    1    2 ar
     2    1    3 ar
     3    2    5 ar
     4    3    6 ar
     5    4    5 ar
     6    4    6 ar
     7    5    7 1
     8    6   23 1
     9    7   17 am
    10    7   19 2
    11    8   13 1
    12    8   18 am
    13    8   20 2
    14    9   15 1
    15   10   15 1
    16   11   12 1
    17   11   14 1
    18   12   22 1
    19   13   14 1
    20   13   21 1
    21   14   16 1
    22   15   22 1
    23   17   18 1
    24    1   24 1
    25    2   25 1
    26    3   26 1
    27    4   27 1
    28    9   28 1
    29    9   29 1
    30    9   30 1
    31   10   31 1
    32   10   32 1
    33   10   33 1
    34   11   34 1
    35   11   35 1
    36   12   36 1
    37   12   37 1
    38   13   38 1
    39   14   39 1
    40   15   40 1
    41   16   41 1
    42   16   42 1
    43   17   43 1
    44   18   44 1
    45   21   45 1
@<TRIPOS>MOLECULE
LIGAND
   45    45     0     0     0
SMALL
NO_CHARGES

@<TRIPOS>ATOM
      1 C1          3.3047   -0.8664    9.7081 C.ar      1 <0>         0.0000
      2 C2          3.6057   -0.4258    8.4194 C.ar      1 <0>         0.0000
      3 C3          2.1622   -1.6344    9.9335 C.ar      1 <0>         0.0000
      4 C4          1.6219   -1.5209    7.5815 C.ar      1 <0>         0.0000
      5 C5          2.7643   -0.7530    7.3561 C.ar      1 <0>         0.0000
      6 C6          1.3208   -1.9616    8.8702 C.ar      1 <0>         0.0000
      7 C7          3.0854   -0.2826    5.9837 C.2       1 <0>         0.0000
      8 C8          1.9325   -1.0133    2.6768 C.2       1 <0>         0.0000
      9 C9         -4.5752    3.1779    0.0331 C.3       1 <0>         0.0000
     10 C10        -2.7668    3.3107   -1.7140 C.3       1 <0>         0.0000
     11 C11         0.2195    0.8307    0.9188 C.3       1 <0>         0.0000
     12 C12        -1.0001    1.1700    0.0549 C.3       1 <0>         0.0000
     13 C13         2.3649   -0.5352    1.2935 C.3       1 <0>         0.0000
     14 C14         1.1534   -0.2750    0.3710 C.3       1 <0>         0.0000
     15 C15        -3.3066    2.5373   -0.5169 C.3       1 <0>         0.0000
     16 N1          1.6681    0.0834   -0.9557 N.3       1 <0>         0.0000
     17 N2          2.6023   -1.0670    4.9540 N.am      1 <0>         0.0000
     18 N3          2.8469   -0.6810    3.6590 N.am      1 <0>         0.0000
     19 O1          3.7293    0.7533    5.8374 O.2       1 <0>         0.0000
     20 O2          0.8915   -1.6405    2.8632 O.2       1 <0>         0.0000
     21 O3          3.2186   -1.5159    0.7230 O.3       1 <0>         0.0000
     22 S1         -2.0492    2.4644    0.7791 S.3       1 <0>         0.0000
     23 Cl1        -0.0884   -2.9097    9.1490 Cl        1 <0>         0.0000
     24 H1          3.9601   -0.6118   10.5358 H         1 <0>         0.0000
     25 H2          4.4987    0.1721    8.2563 H         1 <0>         0.0000
     26 H3          1.9405   -1.9706   10.9431 H         1 <0>         0.0000
     27 H4          0.9676   -1.7751    6.7500 H         1 <0>         0.0000
     28 H5         -4.3764    4.2092    0.3452 H         1 <0>         0.0000
     29 H6         -5.3650    3.2137   -0.7256 H         1 <0>         0.0000
     30 H7         -4.9604    2.6385    0.9059 H         1 <0>         0.0000
     31 H8         -2.5401    4.3441   -1.4288 H         1 <0>         0.0000
     32 H9         -3.5004    3.3505   -2.5268 H         1 <0>         0.0000
     33 H10        -1.8438    2.8672   -2.1048 H         1 <0>         0.0000
     34 H11        -0.1531    0.5335    1.9082 H         1 <0>         0.0000
     35 H12         0.7975    1.7493    1.0822 H         1 <0>         0.0000
     36 H13        -1.6176    0.2727   -0.0585 H         1 <0>         0.0000
     37 H14        -0.7009    1.4813   -0.9501 H         1 <0>         0.0000
     38 H15         2.9484    0.3859    1.4229 H         1 <0>         0.0000
     39 H16         0.5915   -1.2082    0.2610 H         1 <0>         0.0000
     40 H17        -3.5264    1.5088   -0.8227 H         1 <0>         0.0000
     41 H18         0.8845    0.1717   -1.5934 H         1 <0>         0.0000
     42 H19         2.2416   -0.6802   -1.2969 H         1 <0>         0.0000
     43 H20         2.0769   -1.9119    5.1509 H         1 <0>         0.0000
     44 H21         3.6858   -0.1599    3.4266 H         1 <0>         0.0000
     45 H22         2.7041   -2.3378    0.6655 H         1 <0>         0.0000
@<TRIPOS>BOND
     1    1    2 ar
     2    1    3 ar
     3    2    5 ar
     4    3    6 ar
     5    4    5 ar
     6    4    6 ar
     7    5    7 1
     8    6   23 1
     9    7   17 am
    10    7   19 2
    11    8   13 1
    12    8   18 am
    13    8   20 2
    14    9   15 1
    15   10   15 1
    16   11   12 1
    17   11   14 1
    18   12   22 1
    19   13   14 1
    20   13   21 1
    21   14   16 1
    22   15   22 1
    23   17   18 1
    24    1   24 1
    25    2   25 1
    26    3   26 1
    27    4   27 1
    28    9   28 1
    29    9   29 1
    30    9   30 1
    31   10   31 1
    32   10   32 1
    33   10   33 1
    34   11   34 1
    35   11   35 1
    36   12   36 1
    37   12   37 1
    38   13   38 1
    39   14   39 1
    40   15   40 1
    41   16   41 1
    42   16   42 1
    43   17   43 1
    44   18   44 1
    45   21   45 1
@<TRIPOS>MOLECULE
LIGAND
   45    45     0     0     0
SMALL
NO_CHARGES

@<TRIPOS>ATOM
      1 C1         -0.8568   -0.8437    8.7635 C.ar      1 <0>         0.0000
      2 C2         -0.6134   -0.4635    7.4437 C.ar      1 <0>         0.0000
      3 C3          0.2081   -1.1727    9.6022 C.ar      1 <0>         0.0000
      4 C4          1.7598   -0.7415    7.8013 C.ar      1 <0>         0.0000
      5 C5          0.6949   -0.4125    6.9626 C.ar      1 <0>         0.0000
      6 C6          1.5164   -1.1216    9.1211 C.ar      1 <0>         0.0000
      7 C7          0.9532   -0.0081    5.5563 C.2       1 <0>         0.0000
      8 C8          1.9325   -1.0133    2.6768 C.2       1 <0>         0.0000
      9 C9         -3.5456    2.3208    3.0565 C.3       1 <0>         0.0000
     10 C10        -4.0220    0.6377    1.2453 C.3       1 <0>         0.0000
     11 C11         0.2195    0.8307    0.9188 C.3       1 <0>         0.0000
     12 C12        -1.0001    1.1700    0.0549 C.3       1 <0>         0.0000
     13 C13         2.3649   -0.5352    1.2935 C.3       1 <0>         0.0000
     14 C14         1.1534   -0.2750    0.3710 C.3       1 <0>         0.0000
     15 C15        -2.9459    1.4397    1.9673 C.3       1 <0>         0.0000
     16 N1          1.6681    0.0834   -0.9557 N.3       1 <0>         0.0000
     17 N2          2.1084   -0.5131    4.9911 N.am      1 <0>         0.0000
     18 N3          2.3999   -0.1941    3.6876 N.am      1 <0>         0.0000
     19 O1          0.1465    0.7178    4.9806 O.2       1 <0>         0.0000
     20 O2          1.2610   -2.0296    2.8442 O.2       1 <0>         0.0000
     21 O3          3.2186   -1.5159    0.7230 O.3       1 <0>         0.0000
     22 S1         -2.0492    2.4644    0.7791 S.3       1 <0>         0.0000
     23 Cl1         2.8299   -1.5272   10.1568 Cl        1 <0>         0.0000
     24 H1         -1.8754   -0.8830    9.1379 H         1 <0>         0.0000
     25 H2         -1.4514   -0.2096    6.7997 H         1 <0>         0.0000
     26 H3          0.0031   -1.4671   10.6283 H         1 <0>         0.0000
     27 H4          2.7794   -0.7003    7.4234 H         1 <0>         0.0000
     28 H5         -4.2705    3.0197    2.6246 H         1 <0>         0.0000
     29 H6         -4.0763    1.7229    3.8059 H         1 <0>         0.0000
     30 H7         -2.7806    2.9152    3.5690 H         1 <0>         0.0000
     31 H8         -4.7543    1.3108    0.7855 H         1 <0>         0.0000
     32 H9         -4.5673   -0.0125    1.9385 H         1 <0>         0.0000
     33 H10        -3.6015    0.0146    0.4477 H         1 <0>         0.0000
     34 H11        -0.1531    0.5335    1.9082 H         1 <0>         0.0000
     35 H12         0.7975    1.7493    1.0822 H         1 <0>         0.0000
     36 H13        -1.6176    0.2727   -0.0585 H         1 <0>         0.0000
     37 H14        -0.7009    1.4813   -0.9501 H         1 <0>         0.0000
     38 H15         2.9484    0.3859    1.4229 H         1 <0>         0.0000
     39 H16         0.5915   -1.2082    0.2610 H         1 <0>         0.0000
     40 H17        -2.2253    0.7496    2.4190 H         1 <0>         0.0000
     41 H18         0.8845    0.1717   -1.5934 H         1 <0>         0.0000
     42 H19         2.2416   -0.6802   -1.2969 H         1 <0>         0.0000
     43 H20         2.7293   -1.1081    5.5287 H         1 <0>         0.0000
     44 H21         2.9499    0.6302    3.4697 H         1 <0>         0.0000
     45 H22         2.7041   -2.3378    0.6655 H         1 <0>         0.0000
@<TRIPOS>BOND
     1    1    2 ar
     2    1    3 ar
     3    2    5 ar
     4    3    6 ar
     5    4    5 ar
     6    4    6 ar
     7    5    7 1
     8    6   23 1
     9    7   17 am
    10    7   19 2
    11    8   13 1
    12    8   18 am
    13    8   20 2
    14    9   15 1
    15   10   15 1
    16   11   12 1
    17   11   14 1
    18   12   22 1
    19   13   14 1
    20   13   21 1
    21   14   16 1
    22   15   22 1
    23   17   18 1
    24    1   24 1
    25    2   25 1
    26    3   26 1
    27    4   27 1
    28    9   28 1
    29    9   29 1
    30    9   30 1
    31   10   31 1
    32   10   32 1
    33   10   33 1
    34   11   34 1
    35   11   35 1
    36   12   36 1
    37   12   37 1
    38   13   38 1
    39   14   39 1
    40   15   40 1
    41   16   41 1
    42   16   42 1
    43   17   43 1
    44   18   44 1
    45   21   45 1
@<TRIPOS>MOLECULE
LIGAND
   45    45     0     0     0
SMALL
NO_CHARGES

@<TRIPOS>ATOM
      1 C1          0.8626    0.8871    9.5064 C.ar      1 <0>         0.0000
      2 C2          1.2856    1.2206    8.2197 C.ar      1 <0>         0.0000
      3 C3          0.5640   -0.4388    9.8206 C.ar      1 <0>         0.0000
      4 C4          1.1113   -1.0975    7.5615 C.ar      1 <0>         0.0000
      5 C5          1.4099    0.2284    7.2473 C.ar      1 <0>         0.0000
      6 C6          0.6884   -1.4310    8.8482 C.ar      1 <0>         0.0000
      7 C7          1.8600    0.5847    5.8768 C.2       1 <0>         0.0000
      8 C8          1.9325   -1.0133    2.6768 C.2       1 <0>         0.0000
      9 C9         -3.5456    2.3208    3.0565 C.3       1 <0>         0.0000
     10 C10        -4.0220    0.6377    1.2453 C.3       1 <0>         0.0000
     11 C11         0.2195    0.8307    0.9188 C.3       1 <0>         0.0000
     12 C12        -1.0001    1.1700    0.0549 C.3       1 <0>         0.0000
     13 C13         2.3649   -0.5352    1.2935 C.3       1 <0>         0.0000
     14 C14         1.1534   -0.2750    0.3710 C.3       1 <0>         0.0000
     15 C15        -2.9459    1.4397    1.9673 C.3       1 <0>         0.0000
     16 N1          1.6681    0.0834   -0.9557 N.3       1 <0>         0.0000
     17 N2          1.4238   -0.2520    4.8674 N.am      1 <0>         0.0000
     18 N3          1.7877    0.0290    3.5734 N.am      1 <0>         0.0000
     19 O1          2.5607    1.5803    5.7128 O.2       1 <0>         0.0000
     20 O2          1.7602   -2.2018    2.9407 O.2       1 <0>         0.0000
     21 O3          3.2186   -1.5159    0.7230 O.3       1 <0>         0.0000
     22 S1         -2.0492    2.4644    0.7791 S.3       1 <0>         0.0000
     23 Cl1         0.3202   -3.0669    9.2368 Cl        1 <0>         0.0000
     24 H1          0.7662    1.6597   10.2634 H         1 <0>         0.0000
     25 H2          1.5152    2.2572    7.9869 H         1 <0>         0.0000
     26 H3          0.2356   -0.6836   10.8274 H         1 <0>         0.0000
     27 H4          1.2098   -1.8695    6.8011 H         1 <0>         0.0000
     28 H5         -4.2705    3.0197    2.6246 H         1 <0>         0.0000
     29 H6         -4.0763    1.7229    3.8059 H         1 <0>         0.0000
     30 H7         -2.7806    2.9152    3.5690 H         1 <0>         0.0000
     31 H8         -4.7543    1.3108    0.7855 H         1 <0>         0.0000
     32 H9         -4.5673   -0.0125    1.9385 H         1 <0>         0.0000
     33 H10        -3.6015    0.0146    0.4477 H         1 <0>         0.0000
     34 H11        -0.1531    0.5335    1.9082 H         1 <0>         0.0000
     35 H12         0.7975    1.7493    1.0822 H         1 <0>         0.0000
     36 H13        -1.6176    0.2727   -0.0585 H         1 <0>         0.0000
     37 H14        -0.7009    1.4813   -0.9501 H         1 <0>         0.0000
     38 H15         2.9484    0.3859    1.4229 H         1 <0>         0.0000
     39 H16         0.5915   -1.2082    0.2610 H         1 <0>         0.0000
     40 H17        -2.2253    0.7496    2.4190 H         1 <0>         0.0000
     41 H18         0.8845    0.1717   -1.5934 H         1 <0>         0.0000
     42 H19         2.2416   -0.6802   -1.2969 H         1 <0>         0.0000
     43 H20         0.8460   -1.0583    5.0782 H         1 <0>         0.0000
     44 H21         1.9478    0.9869    3.2798 H         1 <0>         0.0000
     45 H22         2.7041   -2.3378    0.6655 H         1 <0>         0.0000
@<TRIPOS>BOND
     1    1    2 ar
     2    1    3 ar
     3    2    5 ar
     4    3    6 ar
     5    4    5 ar
     6    4    6 ar
     7    5    7 1
     8    6   23 1
     9    7   17 am
    10    7   19 2
    11    8   13 1
    12    8   18 am
    13    8   20 2
    14    9   15 1
    15   10   15 1
    16   11   12 1
    17   11   14 1
    18   12   22 1
    19   13   14 1
    20   13   21 1
    21   14   16 1
    22   15   22 1
    23   17   18 1
    24    1   24 1
    25    2   25 1
    26    3   26 1
    27    4   27 1
    28    9   28 1
    29    9   29 1
    30    9   30 1
    31   10   31 1
    32   10   32 1
    33   10   33 1
    34   11   34 1
    35   11   35 1
    36   12   36 1
    37   12   37 1
    38   13   38 1
    39   14   39 1
    40   15   40 1
    41   16   41 1
    42   16   42 1
    43   17   43 1
    44   18   44 1
    45   21   45 1
@<TRIPOS>MOLECULE
LIGAND
   45    45     0     0     0
SMALL
NO_CHARGES

@<TRIPOS>ATOM
      1 C1         -2.0859    0.3620    8.4478 C.ar      1 <0>         0.0000
      2 C2         -1.6873    0.7057    7.1561 C.ar      1 <0>         0.0000
      3 C3         -1.6782   -0.8505    9.0041 C.ar      1 <0>         0.0000
      4 C4         -0.4734   -1.3755    6.9768 C.ar      1 <0>         0.0000
      5 C5         -0.8811   -0.1631    6.4206 C.ar      1 <0>         0.0000
      6 C6         -0.8720   -1.7192    8.2686 C.ar      1 <0>         0.0000
      7 C7         -0.4576    0.2036    5.0443 C.2       1 <0>         0.0000
      8 C8          1.9325   -1.0133    2.6768 C.2       1 <0>         0.0000
      9 C9         -2.8125    0.5348   -2.7511 C.3       1 <0>         0.0000
     10 C10        -2.5812    3.0315   -2.9817 C.3       1 <0>         0.0000
     11 C11         1.5761    0.1765   -1.0474 C.3       1 <0>         0.0000
     12 C12         0.4360    0.4372   -2.0380 C.3       1 <0>         0.0000
     13 C13         2.3649   -0.5352    1.2935 C.3       1 <0>         0.0000
     14 C14         1.1534   -0.2750    0.3710 C.3       1 <0>         0.0000
     15 C15        -1.8423    1.7019   -2.8899 C.3       1 <0>         0.0000
     16 N1          0.3597   -1.5080    0.3138 N.3       1 <0>         0.0000
     17 N2          0.7320   -0.3536    4.6161 N.am      1 <0>         0.0000
     18 N3          1.1743   -0.0714    3.3469 N.am      1 <0>         0.0000
     19 O1         -1.1696    0.9461    4.3728 O.2       1 <0>         0.0000
     20 O2          2.2555   -2.1109    3.1269 O.2       1 <0>         0.0000
     21 O3          3.2186   -1.5159    0.7230 O.3       1 <0>         0.0000
     22 S1         -0.7139    1.7277   -1.4786 S.3       1 <0>         0.0000
     23 Cl1        -0.3688   -3.2149    8.9559 Cl        1 <0>         0.0000
     24 H1         -2.7133    1.0387    9.0204 H         1 <0>         0.0000
     25 H2         -2.0115    1.6532    6.7333 H         1 <0>         0.0000
     26 H3         -1.9966   -1.1048   10.0118 H         1 <0>         0.0000
     27 H4          0.1559   -2.0511    6.4010 H         1 <0>         0.0000
     28 H5         -3.4266    0.6553   -1.8516 H         1 <0>         0.0000
     29 H6         -3.4950    0.4797   -3.6065 H         1 <0>         0.0000
     30 H7         -2.2889   -0.4243   -2.6659 H         1 <0>         0.0000
     31 H8         -3.1918    3.1904   -2.0858 H         1 <0>         0.0000
     32 H9         -3.2564    3.0539   -3.8443 H         1 <0>         0.0000
     33 H10        -1.8903    3.8784   -3.0633 H         1 <0>         0.0000
     34 H11         2.1631    1.1018   -0.9736 H         1 <0>         0.0000
     35 H12         2.2520   -0.5707   -1.4824 H         1 <0>         0.0000
     36 H13        -0.1421   -0.4839   -2.1668 H         1 <0>         0.0000
     37 H14         0.8216    0.7132   -3.0237 H         1 <0>         0.0000
     38 H15         2.9484    0.3859    1.4229 H         1 <0>         0.0000
     39 H16         0.5249    0.4957    0.8291 H         1 <0>         0.0000
     40 H17        -1.2390    1.5625   -3.7933 H         1 <0>         0.0000
     41 H18        -0.4842   -1.3249   -0.2178 H         1 <0>         0.0000
     42 H19         0.0690   -1.7492    1.2550 H         1 <0>         0.0000
     43 H20         1.2684   -0.9594    5.2274 H         1 <0>         0.0000
     44 H21         0.9480    0.8148    2.9078 H         1 <0>         0.0000
     45 H22         2.7041   -2.3378    0.6655 H         1 <0>         0.0000
@<TRIPOS>BOND
     1    1    2 ar
     2    1    3 ar
     3    2    5 ar
     4    3    6 ar
     5    4    5 ar
     6    4    6 ar
     7    5    7 1
     8    6   23 1
     9    7   17 am
    10    7   19 2
    11    8   13 1
    12    8   18 am
    13    8   20 2
    14    9   15 1
    15   10   15 1
    16   11   12 1
    17   11   14 1
    18   12   22 1
    19   13   14 1
    20   13   21 1
    21   14   16 1
    22   15   22 1
    23   17   18 1
    24    1   24 1
    25    2   25 1
    26    3   26 1
    27    4   27 1
    28    9   28 1
    29    9   29 1
    30    9   30 1
    31   10   31 1
    32   10   32 1
    33   10   33 1
    34   11   34 1
    35   11   35 1
    36   12   36 1
    37   12   37 1
    38   13   38 1
    39   14   39 1
    40   15   40 1
    41   16   41 1
    42   16   42 1
    43   17   43 1
    44   18   44 1
    45   21   45 1
@<TRIPOS>MOLECULE
LIGAND
   45    45     0     0     0
SMALL
NO_CHARGES

@<TRIPOS>ATOM
      1 C1         -2.1326   -2.6043    7.7561 C.ar      1 <0>         0.0000
      2 C2         -1.7551   -2.3302    6.4416 C.ar      1 <0>         0.0000
      3 C3         -1.6491   -1.8151    8.7997 C.ar      1 <0>         0.0000
      4 C4         -0.4104   -0.4776    7.2142 C.ar      1 <0>         0.0000
      5 C5         -0.8940   -1.2668    6.1707 C.ar      1 <0>         0.0000
      6 C6         -0.7879   -0.7518    8.5287 C.ar      1 <0>         0.0000
      7 C7         -0.4919   -0.9759    4.7701 C.2       1 <0>         0.0000
      8 C8          1.9325   -1.0133    2.6768 C.2       1 <0>         0.0000
      9 C9         -0.7661    4.0842   -1.5067 C.3       1 <0>         0.0000
     10 C10         1.2631    3.9522   -2.9918 C.3       1 <0>         0.0000
     11 C11         1.5761    0.1765   -1.0474 C.3       1 <0>         0.0000
     12 C12         2.3784    1.4800   -1.1273 C.3       1 <0>         0.0000
     13 C13         2.3649   -0.5352    1.2935 C.3       1 <0>         0.0000
     14 C14         1.1534   -0.2750    0.3710 C.3       1 <0>         0.0000
     15 C15         0.4393    3.2484   -1.9202 C.3       1 <0>         0.0000
     16 N1          0.3597   -1.5080    0.3138 N.3       1 <0>         0.0000
     17 N2          0.7320   -0.3536    4.6161 N.am      1 <0>         0.0000
     18 N3          1.1743   -0.0714    3.3469 N.am      1 <0>         0.0000
     19 O1         -1.2351   -1.3059    3.8493 O.2       1 <0>         0.0000
     20 O2          2.2555   -2.1109    3.1269 O.2       1 <0>         0.0000
     21 O3          3.2186   -1.5159    0.7230 O.3       1 <0>         0.0000
     22 S1          1.4741    2.9151   -0.4766 S.3       1 <0>         0.0000
     23 Cl1        -0.1920    0.2220    9.8169 Cl        1 <0>         0.0000
     24 H1         -2.8034   -3.4321    7.9668 H         1 <0>         0.0000
     25 H2         -2.1385   -2.9523    5.6369 H         1 <0>         0.0000
     26 H3         -1.9519   -2.0407    9.8189 H         1 <0>         0.0000
     27 H4          0.2608    0.3516    6.9998 H         1 <0>         0.0000
     28 H5         -0.4402    5.0542   -1.1149 H         1 <0>         0.0000
     29 H6         -1.4254    4.2821   -2.3592 H         1 <0>         0.0000
     30 H7         -1.3544    3.5937   -0.7229 H         1 <0>         0.0000
     31 H8          1.6202    4.9203   -2.6228 H         1 <0>         0.0000
     32 H9          0.6667    4.1459   -3.8903 H         1 <0>         0.0000
     33 H10         2.1426    3.3661   -3.2821 H         1 <0>         0.0000
     34 H11         2.1843   -0.6108   -1.5125 H         1 <0>         0.0000
     35 H12         0.6847    0.2765   -1.6798 H         1 <0>         0.0000
     36 H13         2.6151    1.6893   -2.1758 H         1 <0>         0.0000
     37 H14         3.3304    1.3937   -0.5957 H         1 <0>         0.0000
     38 H15         2.9484    0.3859    1.4229 H         1 <0>         0.0000
     39 H16         0.5249    0.4957    0.8291 H         1 <0>         0.0000
     40 H17         0.0926    2.2847   -2.3082 H         1 <0>         0.0000
     41 H18        -0.4842   -1.3249   -0.2178 H         1 <0>         0.0000
     42 H19         0.0690   -1.7492    1.2550 H         1 <0>         0.0000
     43 H20         1.2931   -0.1098    5.4249 H         1 <0>         0.0000
     44 H21         0.9480    0.8148    2.9078 H         1 <0>         0.0000
     45 H22         2.7041   -2.3378    0.6655 H         1 <0>         0.0000
@<TRIPOS>BOND
     1    1    2 ar
     2    1    3 ar
     3    2    5 ar
     4    3    6 ar
     5    4    5 ar
     6    4    6 ar
     7    5    7 1
     8    6   23 1
     9    7   17 am
    10    7   19 2
    11    8   13 1
    12    8   18 am
    13    8   20 2
    14    9   15 1
    15   10   15 1
    16   11   12 1
    17   11   14 1
    18   12   22 1
    19   13   14 1
    20   13   21 1
    21   14   16 1
    22   15   22 1
    23   17   18 1
    24    1   24 1
    25    2   25 1
    26    3   26 1
    27    4   27 1
    28    9   28 1
    29    9   29 1
    30    9   30 1
    31   10   31 1
    32   10   32 1
    33   10   33 1
    34   11   34 1
    35   11   35 1
    36   12   36 1
    37   12   37 1
    38   13   38 1
    39   14   39 1
    40   15   40 1
    41   16   41 1
    42   16   42 1
    43   17   43 1
    44   18   44 1
    45   21   45 1
@<TRIPOS>MOLECULE
LIGAND
   45    45     0     0     0
SMALL
NO_CHARGES

@<TRIPOS>ATOM
      1 C1          0.9632   -1.9977    8.7659 C.ar      1 <0>         0.0000
      2 C2          1.2047   -1.6176    7.4458 C.ar      1 <0>         0.0000
      3 C3          0.2117   -1.1727    9.6029 C.ar      1 <0>         0.0000
      4 C4         -0.0565    0.4125    7.7995 C.ar      1 <0>         0.0000
      5 C5          0.6949   -0.4125    6.9626 C.ar      1 <0>         0.0000
      6 C6         -0.2981    0.0324    9.1197 C.ar      1 <0>         0.0000
      7 C7          0.9532   -0.0081    5.5563 C.2       1 <0>         0.0000
      8 C8          1.9325   -1.0133    2.6768 C.2       1 <0>         0.0000
      9 C9         -4.0383    1.9882   -1.0273 C.3       1 <0>         0.0000
     10 C10        -3.4456    4.3900   -0.5583 C.3       1 <0>         0.0000
     11 C11         0.2195    0.8307    0.9188 C.3       1 <0>         0.0000
     12 C12        -1.0001    1.1700    0.0549 C.3       1 <0>         0.0000
     13 C13         2.3649   -0.5352    1.2935 C.3       1 <0>         0.0000
     14 C14         1.1534   -0.2750    0.3710 C.3       1 <0>         0.0000
     15 C15        -2.9141    2.9715   -0.7245 C.3       1 <0>         0.0000
     16 N1          1.6681    0.0834   -0.9557 N.3       1 <0>         0.0000
     17 N2          2.1084   -0.5131    4.9911 N.am      1 <0>         0.0000
     18 N3          2.3999   -0.1941    3.6876 N.am      1 <0>         0.0000
     19 O1          0.1465    0.7178    4.9806 O.2       1 <0>         0.0000
     20 O2          1.2610   -2.0296    2.8442 O.2       1 <0>         0.0000
     21 O3          3.2186   -1.5159    0.7230 O.3       1 <0>         0.0000
     22 S1         -2.0492    2.4644    0.7791 S.3       1 <0>         0.0000
     23 Cl1        -1.2257    1.0496   10.1528 Cl        1 <0>         0.0000
     24 H1          1.3599   -2.9361    9.1418 H         1 <0>         0.0000
     25 H2          1.7918   -2.2688    6.8033 H         1 <0>         0.0000
     26 H3          0.0317   -1.4820   10.6292 H         1 <0>         0.0000
     27 H4         -0.4535    1.3518    7.4197 H         1 <0>         0.0000
     28 H5         -4.7755    1.9915   -0.2167 H         1 <0>         0.0000
     29 H6         -4.5662    2.2576   -1.9489 H         1 <0>         0.0000
     30 H7         -3.6673    0.9620   -1.1303 H         1 <0>         0.0000
     31 H8         -4.1737    4.4304    0.2595 H         1 <0>         0.0000
     32 H9         -3.9550    4.7339   -1.4654 H         1 <0>         0.0000
     33 H10        -2.6458    5.1012   -0.3221 H         1 <0>         0.0000
     34 H11        -0.1531    0.5335    1.9082 H         1 <0>         0.0000
     35 H12         0.7975    1.7493    1.0822 H         1 <0>         0.0000
     36 H13        -1.6176    0.2727   -0.0585 H         1 <0>         0.0000
     37 H14        -0.7009    1.4813   -0.9501 H         1 <0>         0.0000
     38 H15         2.9484    0.3859    1.4229 H         1 <0>         0.0000
     39 H16         0.5915   -1.2082    0.2610 H         1 <0>         0.0000
     40 H17        -2.1892    2.9529   -1.5453 H         1 <0>         0.0000
     41 H18         0.8845    0.1717   -1.5934 H         1 <0>         0.0000
     42 H19         2.2416   -0.6802   -1.2969 H         1 <0>         0.0000
     43 H20         2.7293   -1.1081    5.5287 H         1 <0>         0.0000
     44 H21         2.9499    0.6302    3.4697 H         1 <0>         0.0000
     45 H22         2.7041   -2.3378    0.6655 H         1 <0>         0.0000
@<TRIPOS>BOND
     1    1    2 ar
     2    1    3 ar
     3    2    5 ar
     4    3    6 ar
     5    4    5 ar
     6    4    6 ar
     7    5    7 1
     8    6   23 1
     9    7   17 am
    10    7   19 2
    11    8   13 1
    12    8   18 am
    13    8   20 2
    14    9   15 1
    15   10   15 1
    16   11   12 1
    17   11   14 1
    18   12   22 1
    19   13   14 1
    20   13   21 1
    21   14   16 1
    22   15   22 1
    23   17   18 1
    24    1   24 1
    25    2   25 1
    26    3   26 1
    27    4   27 1
    28    9   28 1
    29    9   29 1
    30    9   30 1
    31   10   31 1
    32   10   32 1
    33   10   33 1
    34   11   34 1
    35   11   35 1
    36   12   36 1
    37   12   37 1
    38   13   38 1
    39   14   39 1
    40   15   40 1
    41   16   41 1
    42   16   42 1
    43   17   43 1
    44   18   44 1
    45   21   45 1
@<TRIPOS>MOLECULE
LIGAND
   45    45     0     0     0
SMALL
NO_CHARGES

@<TRIPOS>ATOM
      1 C1         -2.6241   -1.6244    7.8186 C.ar      1 <0>         0.0000
      2 C2         -2.2458   -1.3508    6.5042 C.ar      1 <0>         0.0000
      3 C3         -1.6506   -1.8141    8.7994 C.ar      1 <0>         0.0000
      4 C4          0.0795   -1.4566    7.1515 C.ar      1 <0>         0.0000
      5 C5         -0.8940   -1.2668    6.1707 C.ar      1 <0>         0.0000
      6 C6         -0.2989   -1.7302    8.4659 C.ar      1 <0>         0.0000
      7 C7         -0.4919   -0.9759    4.7701 C.2       1 <0>         0.0000
      8 C8          1.9325   -1.0133    2.6768 C.2       1 <0>         0.0000
      9 C9         -3.1756    2.3246   -2.4935 C.3       1 <0>         0.0000
     10 C10        -1.2120    2.4385   -4.0656 C.3       1 <0>         0.0000
     11 C11         1.5761    0.1765   -1.0474 C.3       1 <0>         0.0000
     12 C12         0.4360    0.4372   -2.0380 C.3       1 <0>         0.0000
     13 C13         2.3649   -0.5352    1.2935 C.3       1 <0>         0.0000
     14 C14         1.1534   -0.2750    0.3710 C.3       1 <0>         0.0000
     15 C15        -1.8423    1.7019   -2.8899 C.3       1 <0>         0.0000
     16 N1          0.3597   -1.5080    0.3138 N.3       1 <0>         0.0000
     17 N2          0.7320   -0.3536    4.6161 N.am      1 <0>         0.0000
     18 N3          1.1743   -0.0714    3.3469 N.am      1 <0>         0.0000
     19 O1         -1.2351   -1.3059    3.8493 O.2       1 <0>         0.0000
     20 O2          2.2555   -2.1109    3.1269 O.2       1 <0>         0.0000
     21 O3          3.2186   -1.5159    0.7230 O.3       1 <0>         0.0000
     22 S1         -0.7139    1.7277   -1.4786 S.3       1 <0>         0.0000
     23 Cl1         0.9018   -1.9639    9.6768 Cl        1 <0>         0.0000
     24 H1         -3.6766   -1.6894    8.0781 H         1 <0>         0.0000
     25 H2         -3.0136   -1.2050    5.7487 H         1 <0>         0.0000
     26 H3         -1.9605   -2.0267    9.8194 H         1 <0>         0.0000
     27 H4          1.1333   -1.3900    6.8885 H         1 <0>         0.0000
     28 H5         -3.0368    3.3747   -2.2131 H         1 <0>         0.0000
     29 H6         -3.8895    2.3010   -3.3245 H         1 <0>         0.0000
     30 H7         -3.6275    1.8123   -1.6365 H         1 <0>         0.0000
     31 H8         -1.0430    3.4904   -3.8095 H         1 <0>         0.0000
     32 H9         -1.8649    2.4183   -4.9453 H         1 <0>         0.0000
     33 H10        -0.2436    2.0085   -4.3458 H         1 <0>         0.0000
     34 H11         2.1631    1.1018   -0.9736 H         1 <0>         0.0000
     35 H12         2.2520   -0.5707   -1.4824 H         1 <0>         0.0000
     36 H13        -0.1421   -0.4839   -2.1668 H         1 <0>         0.0000
     37 H14         0.8216    0.7132   -3.0237 H         1 <0>         0.0000
     38 H15         2.9484    0.3859    1.4229 H         1 <0>         0.0000
     39 H16         0.5249    0.4957    0.8291 H         1 <0>         0.0000
     40 H17        -2.0027    0.6542   -3.1661 H         1 <0>         0.0000
     41 H18        -0.4842   -1.3249   -0.2178 H         1 <0>         0.0000
     42 H19         0.0690   -1.7492    1.2550 H         1 <0>         0.0000
     43 H20         1.2931   -0.1098    5.4249 H         1 <0>         0.0000
     44 H21         0.9480    0.8148    2.9078 H         1 <0>         0.0000
     45 H22         2.7041   -2.3378    0.6655 H         1 <0>         0.0000
@<TRIPOS>BOND
     1    1    2 ar
     2    1    3 ar
     3    2    5 ar
     4    3    6 ar
     5    4    5 ar
     6    4    6 ar
     7    5    7 1
     8    6   23 1
     9    7   17 am
    10    7   19 2
    11    8   13 1
    12    8   18 am
    13    8   20 2
    14    9   15 1
    15   10   15 1
    16   11   12 1
    17   11   14 1
    18   12   22 1
    19   13   14 1
    20   13   21 1
    21   14   16 1
    22   15   22 1
    23   17   18 1
    24    1   24 1
    25    2   25 1
    26    3   26 1
    27    4   27 1
    28    9   28 1
    29    9   29 1
    30    9   30 1
    31   10   31 1
    32   10   32 1
    33   10   33 1
    34   11   34 1
    35   11   35 1
    36   12   36 1
    37   12   37 1
    38   13   38 1
    39   14   39 1
    40   15   40 1
    41   16   41 1
    42   16   42 1
    43   17   43 1
    44   18   44 1
    45   21   45 1
@<TRIPOS>MOLECULE
LIGAND
   45    45     0     0     0
SMALL
NO_CHARGES

@<TRIPOS>ATOM
      1 C1         -2.0859    0.3620    8.4478 C.ar      1 <0>         0.0000
      2 C2         -1.6873    0.7057    7.1561 C.ar      1 <0>         0.0000
      3 C3         -1.6782   -0.8505    9.0041 C.ar      1 <0>         0.0000
      4 C4         -0.4734   -1.3755    6.9768 C.ar      1 <0>         0.0000
      5 C5         -0.8811   -0.1631    6.4206 C.ar      1 <0>         0.0000
      6 C6         -0.8720   -1.7192    8.2686 C.ar      1 <0>         0.0000
      7 C7         -0.4576    0.2036    5.0443 C.2       1 <0>         0.0000
      8 C8          1.9325   -1.0133    2.6768 C.2       1 <0>         0.0000
      9 C9          0.1128    3.4388   -3.4370 C.3       1 <0>         0.0000
     10 C10        -0.1648    4.3761   -1.1165 C.3       1 <0>         0.0000
     11 C11         1.5761    0.1765   -1.0474 C.3       1 <0>         0.0000
     12 C12         0.4360    0.4372   -2.0380 C.3       1 <0>         0.0000
     13 C13         2.3649   -0.5352    1.2935 C.3       1 <0>         0.0000
     14 C14         1.1534   -0.2750    0.3710 C.3       1 <0>         0.0000
     15 C15         0.2674    3.1720   -1.9445 C.3       1 <0>         0.0000
     16 N1          0.3597   -1.5080    0.3138 N.3       1 <0>         0.0000
     17 N2          0.7320   -0.3536    4.6161 N.am      1 <0>         0.0000
     18 N3          1.1743   -0.0714    3.3469 N.am      1 <0>         0.0000
     19 O1         -1.1696    0.9461    4.3728 O.2       1 <0>         0.0000
     20 O2          2.2555   -2.1109    3.1269 O.2       1 <0>         0.0000
     21 O3          3.2186   -1.5159    0.7230 O.3       1 <0>         0.0000
     22 S1         -0.7139    1.7277   -1.4786 S.3       1 <0>         0.0000
     23 Cl1        -0.3688   -3.2149    8.9559 Cl        1 <0>         0.0000
     24 H1         -2.7133    1.0387    9.0204 H         1 <0>         0.0000
     25 H2         -2.0115    1.6532    6.7333 H         1 <0>         0.0000
     26 H3         -1.9966   -1.1048   10.0118 H         1 <0>         0.0000
     27 H4          0.1559   -2.0511    6.4010 H         1 <0>         0.0000
     28 H5         -0.9313    3.6698   -3.6761 H         1 <0>         0.0000
     29 H6          0.7168    4.2965   -3.7534 H         1 <0>         0.0000
     30 H7          0.4041    2.5712   -4.0399 H         1 <0>         0.0000
     31 H8         -1.2132    4.6215   -1.3199 H         1 <0>         0.0000
     32 H9          0.4307    5.2627   -1.3609 H         1 <0>         0.0000
     33 H10        -0.0742    4.1863   -0.0408 H         1 <0>         0.0000
     34 H11         2.1631    1.1018   -0.9736 H         1 <0>         0.0000
     35 H12         2.2520   -0.5707   -1.4824 H         1 <0>         0.0000
     36 H13        -0.1421   -0.4839   -2.1668 H         1 <0>         0.0000
     37 H14         0.8216    0.7132   -3.0237 H         1 <0>         0.0000
     38 H15         2.9484    0.3859    1.4229 H         1 <0>         0.0000
     39 H16         0.5249    0.4957    0.8291 H         1 <0>         0.0000
     40 H17         1.3162    2.9436   -1.7268 H         1 <0>         0.0000
     41 H18        -0.4842   -1.3249   -0.2178 H         1 <0>         0.0000
     42 H19         0.0690   -1.7492    1.2550 H         1 <0>         0.0000
     43 H20         1.2684   -0.9594    5.2274 H         1 <0>         0.0000
     44 H21         0.9480    0.8148    2.9078 H         1 <0>         0.0000
     45 H22         2.7041   -2.3378    0.6655 H         1 <0>         0.0000
@<TRIPOS>BOND
     1    1    2 ar
     2    1    3 ar
     3    2    5 ar
     4    3    6 ar
     5    4    5 ar
     6    4    6 ar
     7    5    7 1
     8    6   23 1
     9    7   17 am
    10    7   19 2
    11    8   13 1
    12    8   18 am
    13    8   20 2
    14    9   15 1
    15   10   15 1
    16   11   12 1
    17   11   14 1
    18   12   22 1
    19   13   14 1
    20   13   21 1
    21   14   16 1
    22   15   22 1
    23   17   18 1
    24    1   24 1
    25    2   25 1
    26    3   26 1
    27    4   27 1
    28    9   28 1
    29    9   29 1
    30    9   30 1
    31   10   31 1
    32   10   32 1
    33   10   33 1
    34   11   34 1
    35   11   35 1
    36   12   36 1
    37   12   37 1
    38   13   38 1
    39   14   39 1
    40   15   40 1
    41   16   41 1
    42   16   42 1
    43   17   43 1
    44   18   44 1
    45   21   45 1
@<TRIPOS>MOLECULE
LIGAND
   45    45     0     0     0
SMALL
NO_CHARGES

@<TRIPOS>ATOM
      1 C1         -0.7874   -0.7484    8.5279 C.ar      1 <0>         0.0000
      2 C2         -0.4100   -0.4763    7.2130 C.ar      1 <0>         0.0000
      3 C3         -1.6489   -1.8111    8.8006 C.ar      1 <0>         0.0000
      4 C4         -1.7555   -2.3295    6.4433 C.ar      1 <0>         0.0000
      5 C5         -0.8940   -1.2668    6.1707 C.ar      1 <0>         0.0000
      6 C6         -2.1330   -2.6016    7.7583 C.ar      1 <0>         0.0000
      7 C7         -0.4919   -0.9759    4.7701 C.2       1 <0>         0.0000
      8 C8          1.9325   -1.0133    2.6768 C.2       1 <0>         0.0000
      9 C9         -3.1756    2.3246   -2.4935 C.3       1 <0>         0.0000
     10 C10        -1.2120    2.4385   -4.0656 C.3       1 <0>         0.0000
     11 C11         1.5761    0.1765   -1.0474 C.3       1 <0>         0.0000
     12 C12         0.4360    0.4372   -2.0380 C.3       1 <0>         0.0000
     13 C13         2.3649   -0.5352    1.2935 C.3       1 <0>         0.0000
     14 C14         1.1534   -0.2750    0.3710 C.3       1 <0>         0.0000
     15 C15        -1.8423    1.7019   -2.8899 C.3       1 <0>         0.0000
     16 N1          0.3597   -1.5080    0.3138 N.3       1 <0>         0.0000
     17 N2          0.7320   -0.3536    4.6161 N.am      1 <0>         0.0000
     18 N3          1.1743   -0.0714    3.3469 N.am      1 <0>         0.0000
     19 O1         -1.2351   -1.3059    3.8493 O.2       1 <0>         0.0000
     20 O2          2.2555   -2.1109    3.1269 O.2       1 <0>         0.0000
     21 O3          3.2186   -1.5159    0.7230 O.3       1 <0>         0.0000
     22 S1         -0.7139    1.7277   -1.4786 S.3       1 <0>         0.0000
     23 Cl1        -3.1956   -3.9130    8.0955 Cl        1 <0>         0.0000
     24 H1         -0.4102   -0.1330    9.3393 H         1 <0>         0.0000
     25 H2          0.2618    0.3545    7.0131 H         1 <0>         0.0000
     26 H3         -1.9343   -2.0111    9.8301 H         1 <0>         0.0000
     27 H4         -2.1312   -2.9448    5.6282 H         1 <0>         0.0000
     28 H5         -3.0368    3.3747   -2.2131 H         1 <0>         0.0000
     29 H6         -3.8895    2.3010   -3.3245 H         1 <0>         0.0000
     30 H7         -3.6275    1.8123   -1.6365 H         1 <0>         0.0000
     31 H8         -1.0430    3.4904   -3.8095 H         1 <0>         0.0000
     32 H9         -1.8649    2.4183   -4.9453 H         1 <0>         0.0000
     33 H10        -0.2436    2.0085   -4.3458 H         1 <0>         0.0000
     34 H11         2.1631    1.1018   -0.9736 H         1 <0>         0.0000
     35 H12         2.2520   -0.5707   -1.4824 H         1 <0>         0.0000
     36 H13        -0.1421   -0.4839   -2.1668 H         1 <0>         0.0000
     37 H14         0.8216    0.7132   -3.0237 H         1 <0>         0.0000
     38 H15         2.9484    0.3859    1.4229 H         1 <0>         0.0000
     39 H16         0.5249    0.4957    0.8291 H         1 <0>         0.0000
     40 H17        -2.0027    0.6542   -3.1661 H         1 <0>         0.0000
     41 H18        -0.4842   -1.3249   -0.2178 H         1 <0>         0.0000
     42 H19         0.0690   -1.7492    1.2550 H         1 <0>         0.0000
     43 H20         1.2931   -0.1098    5.4249 H         1 <0>         0.0000
     44 H21         0.9480    0.8148    2.9078 H         1 <0>         0.0000
     45 H22         2.7041   -2.3378    0.6655 H         1 <0>         0.0000
@<TRIPOS>BOND
     1    1    2 ar
     2    1    3 ar
     3    2    5 ar
     4    3    6 ar
     5    4    5 ar
     6    4    6 ar
     7    5    7 1
     8    6   23 1
     9    7   17 am
    10    7   19 2
    11    8   13 1
    12    8   18 am
    13    8   20 2
    14    9   15 1
    15   10   15 1
    16   11   12 1
    17   11   14 1
    18   12   22 1
    19   13   14 1
    20   13   21 1
    21   14   16 1
    22   15   22 1
    23   17   18 1
    24    1   24 1
    25    2   25 1
    26    3   26 1
    27    4   27 1
    28    9   28 1
    29    9   29 1
    30    9   30 1
    31   10   31 1
    32   10   32 1
    33   10   33 1
    34   11   34 1
    35   11   35 1
    36   12   36 1
    37   12   37 1
    38   13   38 1
    39   14   39 1
    40   15   40 1
    41   16   41 1
    42   16   42 1
    43   17   43 1
    44   18   44 1
    45   21   45 1
@<TRIPOS>MOLECULE
LIGAND
   45    45     0     0     0
SMALL
NO_CHARGES

@<TRIPOS>ATOM
      1 C1          2.2867   -1.8006    9.3387 C.ar      1 <0>         0.0000
      2 C2          2.7263   -1.5405    8.0408 C.ar      1 <0>         0.0000
      3 C3          1.0666   -1.2866    9.7779 C.ar      1 <0>         0.0000
      4 C4          0.7260   -0.2522    7.6213 C.ar      1 <0>         0.0000
      5 C5          1.9460   -0.7663    7.1821 C.ar      1 <0>         0.0000
      6 C6          0.2863   -0.5124    8.9192 C.ar      1 <0>         0.0000
      7 C7          2.4155   -0.4891    5.7998 C.2       1 <0>         0.0000
      8 C8          1.9325   -1.0133    2.6768 C.2       1 <0>         0.0000
      9 C9          0.9492    3.5395    4.1781 C.3       1 <0>         0.0000
     10 C10        -1.5671    3.4454    4.1811 C.3       1 <0>         0.0000
     11 C11         0.2195    0.8307    0.9188 C.3       1 <0>         0.0000
     12 C12         0.8590    2.2074    1.1305 C.3       1 <0>         0.0000
     13 C13         2.3649   -0.5352    1.2935 C.3       1 <0>         0.0000
     14 C14         1.1534   -0.2750    0.3710 C.3       1 <0>         0.0000
     15 C15        -0.2901    2.9668    3.5009 C.3       1 <0>         0.0000
     16 N1          1.6681    0.0834   -0.9557 N.3       1 <0>         0.0000
     17 N2          1.4238   -0.2520    4.8674 N.am      1 <0>         0.0000
     18 N3          1.7877    0.0290    3.5734 N.am      1 <0>         0.0000
     19 O1          3.6213   -0.4699    5.5658 O.2       1 <0>         0.0000
     20 O2          1.7602   -2.2018    2.9407 O.2       1 <0>         0.0000
     21 O3          3.2186   -1.5159    0.7230 O.3       1 <0>         0.0000
     22 S1         -0.3102    3.4478    1.7590 S.3       1 <0>         0.0000
     23 Cl1        -1.2194    0.1212    9.4617 Cl        1 <0>         0.0000
     24 H1          2.8942   -2.4037   10.0070 H         1 <0>         0.0000
     25 H2          3.6789   -1.9464    7.7100 H         1 <0>         0.0000
     26 H3          0.7369   -1.4976   10.7919 H         1 <0>         0.0000
     27 H4          0.1191    0.3510    6.9490 H         1 <0>         0.0000
     28 H5          0.9275    4.6347    4.1481 H         1 <0>         0.0000
     29 H6          1.0005    3.2436    5.2319 H         1 <0>         0.0000
     30 H7          1.8721    3.2151    3.6839 H         1 <0>         0.0000
     31 H8         -1.6274    4.5391    4.1512 H         1 <0>         0.0000
     32 H9         -1.5938    3.1464    5.2349 H         1 <0>         0.0000
     33 H10        -2.4642    3.0528    3.6891 H         1 <0>         0.0000
     34 H11        -0.6259    0.9652    0.2307 H         1 <0>         0.0000
     35 H12        -0.2197    0.5004    1.8688 H         1 <0>         0.0000
     36 H13         1.2423    2.5738    0.1722 H         1 <0>         0.0000
     37 H14         1.7108    2.1489    1.8142 H         1 <0>         0.0000
     38 H15         2.9484    0.3859    1.4229 H         1 <0>         0.0000
     39 H16         0.5915   -1.2082    0.2610 H         1 <0>         0.0000
     40 H17        -0.2491    1.8731    3.5416 H         1 <0>         0.0000
     41 H18         0.8845    0.1717   -1.5934 H         1 <0>         0.0000
     42 H19         2.2416   -0.6802   -1.2969 H         1 <0>         0.0000
     43 H20         0.4458   -0.2847    5.1337 H         1 <0>         0.0000
     44 H21         1.9478    0.9869    3.2798 H         1 <0>         0.0000
     45 H22         2.7041   -2.3378    0.6655 H         1 <0>         0.0000
@<TRIPOS>BOND
     1    1    2 ar
     2    1    3 ar
     3    2    5 ar
     4    3    6 ar
     5    4    5 ar
     6    4    6 ar
     7    5    7 1
     8    6   23 1
     9    7   17 am
    10    7   19 2
    11    8   13 1
    12    8   18 am
    13    8   20 2
    14    9   15 1
    15   10   15 1
    16   11   12 1
    17   11   14 1
    18   12   22 1
    19   13   14 1
    20   13   21 1
    21   14   16 1
    22   15   22 1
    23   17   18 1
    24    1   24 1
    25    2   25 1
    26    3   26 1
    27    4   27 1
    28    9   28 1
    29    9   29 1
    30    9   30 1
    31   10   31 1
    32   10   32 1
    33   10   33 1
    34   11   34 1
    35   11   35 1
    36   12   36 1
    37   12   37 1
    38   13   38 1
    39   14   39 1
    40   15   40 1
    41   16   41 1
    42   16   42 1
    43   17   43 1
    44   18   44 1
    45   21   45 1
@<TRIPOS>MOLECULE
LIGAND
   45    45     0     0     0
SMALL
NO_CHARGES

@<TRIPOS>ATOM
      1 C1          1.7949   -2.7138    8.7492 C.ar      1 <0>         0.0000
      2 C2          2.1171   -2.3438    7.4435 C.ar      1 <0>         0.0000
      3 C3          2.6888   -2.4547    9.7883 C.ar      1 <0>         0.0000
      4 C4          4.2272   -1.4558    8.2158 C.ar      1 <0>         0.0000
      5 C5          3.3333   -1.7148    7.1768 C.ar      1 <0>         0.0000
      6 C6          3.9049   -1.8257    9.5216 C.ar      1 <0>         0.0000
      7 C7          3.6760   -1.3216    5.7855 C.2       1 <0>         0.0000
      8 C8          1.9325   -1.0133    2.6768 C.2       1 <0>         0.0000
      9 C9         -0.3459    6.1254    1.2341 C.3       1 <0>         0.0000
     10 C10         1.7475    5.1698    2.2562 C.3       1 <0>         0.0000
     11 C11         0.2195    0.8307    0.9188 C.3       1 <0>         0.0000
     12 C12         0.8590    2.2074    1.1305 C.3       1 <0>         0.0000
     13 C13         2.3649   -0.5352    1.2935 C.3       1 <0>         0.0000
     14 C14         1.1534   -0.2750    0.3710 C.3       1 <0>         0.0000
     15 C15         0.6016    4.9327    1.2798 C.3       1 <0>         0.0000
     16 N1          1.6681    0.0834   -0.9557 N.3       1 <0>         0.0000
     17 N2          2.6023   -1.0670    4.9540 N.am      1 <0>         0.0000
     18 N3          2.8469   -0.6810    3.6590 N.am      1 <0>         0.0000
     19 O1          4.8567   -1.2304    5.4589 O.2       1 <0>         0.0000
     20 O2          0.8915   -1.6405    2.8632 O.2       1 <0>         0.0000
     21 O3          3.2186   -1.5159    0.7230 O.3       1 <0>         0.0000
     22 S1         -0.3102    3.4478    1.7590 S.3       1 <0>         0.0000
     23 Cl1         5.0072   -1.5059   10.8043 Cl        1 <0>         0.0000
     24 H1          0.8479   -3.2031    8.9567 H         1 <0>         0.0000
     25 H2          1.4125   -2.5511    6.6423 H         1 <0>         0.0000
     26 H3          2.4241   -2.7487   10.8007 H         1 <0>         0.0000
     27 H4          5.1749   -0.9645    8.0049 H         1 <0>         0.0000
     28 H5         -0.7677    6.3147    2.2275 H         1 <0>         0.0000
     29 H6          0.1756    7.0373    0.9225 H         1 <0>         0.0000
     30 H7         -1.1835    5.9561    0.5478 H         1 <0>         0.0000
     31 H8          1.3579    5.3444    3.2653 H         1 <0>         0.0000
     32 H9          2.3340    6.0519    1.9762 H         1 <0>         0.0000
     33 H10         2.4242    4.3092    2.3091 H         1 <0>         0.0000
     34 H11        -0.6259    0.9652    0.2307 H         1 <0>         0.0000
     35 H12        -0.2197    0.5004    1.8688 H         1 <0>         0.0000
     36 H13         1.2423    2.5738    0.1722 H         1 <0>         0.0000
     37 H14         1.7108    2.1489    1.8142 H         1 <0>         0.0000
     38 H15         2.9484    0.3859    1.4229 H         1 <0>         0.0000
     39 H16         0.5915   -1.2082    0.2610 H         1 <0>         0.0000
     40 H17         1.0117    4.7605    0.2790 H         1 <0>         0.0000
     41 H18         0.8845    0.1717   -1.5934 H         1 <0>         0.0000
     42 H19         2.2416   -0.6802   -1.2969 H         1 <0>         0.0000
     43 H20         1.6516   -1.1634    5.2936 H         1 <0>         0.0000
     44 H21         3.6858   -0.1599    3.4266 H         1 <0>         0.0000
     45 H22         2.7041   -2.3378    0.6655 H         1 <0>         0.0000
@<TRIPOS>BOND
     1    1    2 ar
     2    1    3 ar
     3    2    5 ar
     4    3    6 ar
     5    4    5 ar
     6    4    6 ar
     7    5    7 1
     8    6   23 1
     9    7   17 am
    10    7   19 2
    11    8   13 1
    12    8   18 am
    13    8   20 2
    14    9   15 1
    15   10   15 1
    16   11   12 1
    17   11   14 1
    18   12   22 1
    19   13   14 1
    20   13   21 1
    21   14   16 1
    22   15   22 1
    23   17   18 1
    24    1   24 1
    25    2   25 1
    26    3   26 1
    27    4   27 1
    28    9   28 1
    29    9   29 1
    30    9   30 1
    31   10   31 1
    32   10   32 1
    33   10   33 1
    34   11   34 1
    35   11   35 1
    36   12   36 1
    37   12   37 1
    38   13   38 1
    39   14   39 1
    40   15   40 1
    41   16   41 1
    42   16   42 1
    43   17   43 1
    44   18   44 1
    45   21   45 1
@<TRIPOS>MOLECULE
LIGAND
   45    45     0     0     0
SMALL
NO_CHARGES

@<TRIPOS>ATOM
      1 C1          0.2838   -0.5121    8.9168 C.ar      1 <0>         0.0000
      2 C2          0.7255   -0.2519    7.6195 C.ar      1 <0>         0.0000
      3 C3          1.0627   -1.2866    9.7766 C.ar      1 <0>         0.0000
      4 C4          2.7249   -1.5408    8.0419 C.ar      1 <0>         0.0000
      5 C5          1.9460   -0.7663    7.1821 C.ar      1 <0>         0.0000
      6 C6          2.2832   -1.8009    9.3391 C.ar      1 <0>         0.0000
      7 C7          2.4155   -0.4891    5.7998 C.2       1 <0>         0.0000
      8 C8          1.9325   -1.0133    2.6768 C.2       1 <0>         0.0000
      9 C9          0.9492    3.5395    4.1781 C.3       1 <0>         0.0000
     10 C10        -1.5671    3.4454    4.1811 C.3       1 <0>         0.0000
     11 C11         0.2195    0.8307    0.9188 C.3       1 <0>         0.0000
     12 C12         0.8590    2.2074    1.1305 C.3       1 <0>         0.0000
     13 C13         2.3649   -0.5352    1.2935 C.3       1 <0>         0.0000
     14 C14         1.1534   -0.2750    0.3710 C.3       1 <0>         0.0000
     15 C15        -0.2901    2.9668    3.5009 C.3       1 <0>         0.0000
     16 N1          1.6681    0.0834   -0.9557 N.3       1 <0>         0.0000
     17 N2          1.4238   -0.2520    4.8674 N.am      1 <0>         0.0000
     18 N3          1.7877    0.0290    3.5734 N.am      1 <0>         0.0000
     19 O1          3.6213   -0.4699    5.5658 O.2       1 <0>         0.0000
     20 O2          1.7602   -2.2018    2.9407 O.2       1 <0>         0.0000
     21 O3          3.2186   -1.5159    0.7230 O.3       1 <0>         0.0000
     22 S1         -0.3102    3.4478    1.7590 S.3       1 <0>         0.0000
     23 Cl1         3.2440   -2.7561   10.4008 Cl        1 <0>         0.0000
     24 H1         -0.6664   -0.1113    9.2573 H         1 <0>         0.0000
     25 H2          0.1097    0.3528    6.9588 H         1 <0>         0.0000
     26 H3          0.7056   -1.4810   10.7846 H         1 <0>         0.0000
     27 H4          3.6769   -1.9403    7.6980 H         1 <0>         0.0000
     28 H5          0.9275    4.6347    4.1481 H         1 <0>         0.0000
     29 H6          1.0005    3.2436    5.2319 H         1 <0>         0.0000
     30 H7          1.8721    3.2151    3.6839 H         1 <0>         0.0000
     31 H8         -1.6274    4.5391    4.1512 H         1 <0>         0.0000
     32 H9         -1.5938    3.1464    5.2349 H         1 <0>         0.0000
     33 H10        -2.4642    3.0528    3.6891 H         1 <0>         0.0000
     34 H11        -0.6259    0.9652    0.2307 H         1 <0>         0.0000
     35 H12        -0.2197    0.5004    1.8688 H         1 <0>         0.0000
     36 H13         1.2423    2.5738    0.1722 H         1 <0>         0.0000
     37 H14         1.7108    2.1489    1.8142 H         1 <0>         0.0000
     38 H15         2.9484    0.3859    1.4229 H         1 <0>         0.0000
     39 H16         0.5915   -1.2082    0.2610 H         1 <0>         0.0000
     40 H17        -0.2491    1.8731    3.5416 H         1 <0>         0.0000
     41 H18         0.8845    0.1717   -1.5934 H         1 <0>         0.0000
     42 H19         2.2416   -0.6802   -1.2969 H         1 <0>         0.0000
     43 H20         0.4458   -0.2847    5.1337 H         1 <0>         0.0000
     44 H21         1.9478    0.9869    3.2798 H         1 <0>         0.0000
     45 H22         2.7041   -2.3378    0.6655 H         1 <0>         0.0000
@<TRIPOS>BOND
     1    1    2 ar
     2    1    3 ar
     3    2    5 ar
     4    3    6 ar
     5    4    5 ar
     6    4    6 ar
     7    5    7 1
     8    6   23 1
     9    7   17 am
    10    7   19 2
    11    8   13 1
    12    8   18 am
    13    8   20 2
    14    9   15 1
    15   10   15 1
    16   11   12 1
    17   11   14 1
    18   12   22 1
    19   13   14 1
    20   13   21 1
    21   14   16 1
    22   15   22 1
    23   17   18 1
    24    1   24 1
    25    2   25 1
    26    3   26 1
    27    4   27 1
    28    9   28 1
    29    9   29 1
    30    9   30 1
    31   10   31 1
    32   10   32 1
    33   10   33 1
    34   11   34 1
    35   11   35 1
    36   12   36 1
    37   12   37 1
    38   13   38 1
    39   14   39 1
    40   15   40 1
    41   16   41 1
    42   16   42 1
    43   17   43 1
    44   18   44 1
    45   21   45 1
@<TRIPOS>MOLECULE
LIGAND
   45    45     0     0     0
SMALL
NO_CHARGES

@<TRIPOS>ATOM
      1 C1         -0.2040   -0.8100    8.7149 C.ar      1 <0>         0.0000
      2 C2          0.2189   -0.4746    7.4288 C.ar      1 <0>         0.0000
      3 C3          0.5641   -0.4423    9.8197 C.ar      1 <0>         0.0000
      4 C4          2.1781    0.5960    8.3521 C.ar      1 <0>         0.0000
      5 C5          1.4099    0.2284    7.2473 C.ar      1 <0>         0.0000
      6 C6          1.7552    0.2607    9.6383 C.ar      1 <0>         0.0000
      7 C7          1.8600    0.5847    5.8768 C.2       1 <0>         0.0000
      8 C8          1.9325   -1.0133    2.6768 C.2       1 <0>         0.0000
      9 C9         -4.5409   -0.2645   -1.4345 C.3       1 <0>         0.0000
     10 C10        -4.2498    1.2273    0.5730 C.3       1 <0>         0.0000
     11 C11         0.2195    0.8307    0.9188 C.3       1 <0>         0.0000
     12 C12        -1.0001    1.1700    0.0549 C.3       1 <0>         0.0000
     13 C13         2.3649   -0.5352    1.2935 C.3       1 <0>         0.0000
     14 C14         1.1534   -0.2750    0.3710 C.3       1 <0>         0.0000
     15 C15        -3.5917    0.6563   -0.6773 C.3       1 <0>         0.0000
     16 N1          1.6681    0.0834   -0.9557 N.3       1 <0>         0.0000
     17 N2          1.4238   -0.2520    4.8674 N.am      1 <0>         0.0000
     18 N3          1.7877    0.0290    3.5734 N.am      1 <0>         0.0000
     19 O1          2.5607    1.5803    5.7128 O.2       1 <0>         0.0000
     20 O2          1.7602   -2.2018    2.9407 O.2       1 <0>         0.0000
     21 O3          3.2186   -1.5159    0.7230 O.3       1 <0>         0.0000
     22 S1         -2.0977   -0.2515   -0.2193 S.3       1 <0>         0.0000
     23 Cl1         2.7022    0.7144   11.0020 Cl        1 <0>         0.0000
     24 H1         -1.1315   -1.3570    8.8560 H         1 <0>         0.0000
     25 H2         -0.3881   -0.7667    6.5757 H         1 <0>         0.0000
     26 H3          0.2219   -0.7106   10.8159 H         1 <0>         0.0000
     27 H4          3.1065    1.1449    8.2076 H         1 <0>         0.0000
     28 H5         -4.8550   -1.0968   -0.7948 H         1 <0>         0.0000
     29 H6         -5.4473    0.2665   -1.7465 H         1 <0>         0.0000
     30 H7         -4.0696   -0.6943   -2.3258 H         1 <0>         0.0000
     31 H8         -4.5594    0.4179    1.2437 H         1 <0>         0.0000
     32 H9         -5.1470    1.8046    0.3233 H         1 <0>         0.0000
     33 H10        -3.5678    1.8766    1.1339 H         1 <0>         0.0000
     34 H11        -0.1531    0.5335    1.9082 H         1 <0>         0.0000
     35 H12         0.7975    1.7493    1.0822 H         1 <0>         0.0000
     36 H13        -0.6573    1.5138   -0.9268 H         1 <0>         0.0000
     37 H14        -1.5832    1.9849    0.4933 H         1 <0>         0.0000
     38 H15         2.9484    0.3859    1.4229 H         1 <0>         0.0000
     39 H16         0.5915   -1.2082    0.2610 H         1 <0>         0.0000
     40 H17        -3.2902    1.4801   -1.3331 H         1 <0>         0.0000
     41 H18         0.8845    0.1717   -1.5934 H         1 <0>         0.0000
     42 H19         2.2416   -0.6802   -1.2969 H         1 <0>         0.0000
     43 H20         0.8460   -1.0583    5.0782 H         1 <0>         0.0000
     44 H21         1.9478    0.9869    3.2798 H         1 <0>         0.0000
     45 H22         2.7041   -2.3378    0.6655 H         1 <0>         0.0000
@<TRIPOS>BOND
     1    1    2 ar
     2    1    3 ar
     3    2    5 ar
     4    3    6 ar
     5    4    5 ar
     6    4    6 ar
     7    5    7 1
     8    6   23 1
     9    7   17 am
    10    7   19 2
    11    8   13 1
    12    8   18 am
    13    8   20 2
    14    9   15 1
    15   10   15 1
    16   11   12 1
    17   11   14 1
    18   12   22 1
    19   13   14 1
    20   13   21 1
    21   14   16 1
    22   15   22 1
    23   17   18 1
    24    1   24 1
    25    2   25 1
    26    3   26 1
    27    4   27 1
    28    9   28 1
    29    9   29 1
    30    9   30 1
    31   10   31 1
    32   10   32 1
    33   10   33 1
    34   11   34 1
    35   11   35 1
    36   12   36 1
    37   12   37 1
    38   13   38 1
    39   14   39 1
    40   15   40 1
    41   16   41 1
    42   16   42 1
    43   17   43 1
    44   18   44 1
    45   21   45 1
@<TRIPOS>MOLECULE
LIGAND
   45    45     0     0     0
SMALL
NO_CHARGES

@<TRIPOS>ATOM
      1 C1          3.2234   -1.0640    9.6374 C.ar      1 <0>         0.0000
      2 C2          3.5913   -0.7258    8.3352 C.ar      1 <0>         0.0000
      3 C3          1.8747   -1.1889    9.9710 C.ar      1 <0>         0.0000
      4 C4          1.2619   -0.6372    7.7001 C.ar      1 <0>         0.0000
      5 C5          2.6105   -0.5124    7.3666 C.ar      1 <0>         0.0000
      6 C6          0.8940   -0.9755    9.0024 C.ar      1 <0>         0.0000
      7 C7          3.0033   -0.1514    5.9797 C.2       1 <0>         0.0000
      8 C8          1.9325   -1.0133    2.6768 C.2       1 <0>         0.0000
      9 C9          0.0327    2.2317    5.0129 C.3       1 <0>         0.0000
     10 C10        -2.4052    1.6484    4.7751 C.3       1 <0>         0.0000
     11 C11        -0.0095    0.4324    1.1072 C.3       1 <0>         0.0000
     12 C12         0.3168    1.7958    1.7266 C.3       1 <0>         0.0000
     13 C13         2.3649   -0.5352    1.2935 C.3       1 <0>         0.0000
     14 C14         1.1534   -0.2750    0.3710 C.3       1 <0>         0.0000
     15 C15        -1.0363    1.6350    4.1054 C.3       1 <0>         0.0000
     16 N1          1.6190    0.5274   -0.7660 N.3       1 <0>         0.0000
     17 N2          2.1084   -0.5131    4.9911 N.am      1 <0>         0.0000
     18 N3          2.3999   -0.1941    3.6876 N.am      1 <0>         0.0000
     19 O1          4.0607    0.4441    5.7889 O.2       1 <0>         0.0000
     20 O2          1.2610   -2.0296    2.8442 O.2       1 <0>         0.0000
     21 O3          3.2186   -1.5159    0.7230 O.3       1 <0>         0.0000
     22 S1         -1.1069    2.5617    2.5555 S.3       1 <0>         0.0000
     23 Cl1        -0.7699   -1.1303    9.4146 Cl        1 <0>         0.0000
     24 H1          3.9871   -1.2304   10.3914 H         1 <0>         0.0000
     25 H2          4.6454   -0.6312    8.0874 H         1 <0>         0.0000
     26 H3          1.6032   -1.4531   10.9898 H         1 <0>         0.0000
     27 H4          0.4990   -0.4707    6.9423 H         1 <0>         0.0000
     28 H5         -0.2200    3.2666    5.2693 H         1 <0>         0.0000
     29 H6          0.1147    1.6741    5.9526 H         1 <0>         0.0000
     30 H7          1.0175    2.2430    4.5321 H         1 <0>         0.0000
     31 H8         -2.6954    2.6743    5.0278 H         1 <0>         0.0000
     32 H9         -2.3988    1.0726    5.7073 H         1 <0>         0.0000
     33 H10        -3.1838    1.2376    4.1222 H         1 <0>         0.0000
     34 H11        -0.8436    0.5818    0.4085 H         1 <0>         0.0000
     35 H12        -0.3964   -0.2253    1.8961 H         1 <0>         0.0000
     36 H13         0.6415    2.4788    0.9344 H         1 <0>         0.0000
     37 H14         1.1411    1.7204    2.4415 H         1 <0>         0.0000
     38 H15         2.9484    0.3859    1.4229 H         1 <0>         0.0000
     39 H16         0.8058   -1.2336   -0.0276 H         1 <0>         0.0000
     40 H17        -0.7654    0.6023    3.8614 H         1 <0>         0.0000
     41 H18         0.8536    0.6316   -1.4231 H         1 <0>         0.0000
     42 H19         2.3513    0.0146   -1.2450 H         1 <0>         0.0000
     43 H20         1.2525   -1.0048    5.2237 H         1 <0>         0.0000
     44 H21         2.9499    0.6302    3.4697 H         1 <0>         0.0000
     45 H22         2.7041   -2.3378    0.6655 H         1 <0>         0.0000
@<TRIPOS>BOND
     1    1    2 ar
     2    1    3 ar
     3    2    5 ar
     4    3    6 ar
     5    4    5 ar
     6    4    6 ar
     7    5    7 1
     8    6   23 1
     9    7   17 am
    10    7   19 2
    11    8   13 1
    12    8   18 am
    13    8   20 2
    14    9   15 1
    15   10   15 1
    16   11   12 1
    17   11   14 1
    18   12   22 1
    19   13   14 1
    20   13   21 1
    21   14   16 1
    22   15   22 1
    23   17   18 1
    24    1   24 1
    25    2   25 1
    26    3   26 1
    27    4   27 1
    28    9   28 1
    29    9   29 1
    30    9   30 1
    31   10   31 1
    32   10   32 1
    33   10   33 1
    34   11   34 1
    35   11   35 1
    36   12   36 1
    37   12   37 1
    38   13   38 1
    39   14   39 1
    40   15   40 1
    41   16   41 1
    42   16   42 1
    43   17   43 1
    44   18   44 1
    45   21   45 1
@<TRIPOS>MOLECULE
LIGAND
   45    45     0     0     0
SMALL
NO_CHARGES

@<TRIPOS>ATOM
      1 C1         -0.5153   -4.0016    7.6155 C.ar      1 <0>         0.0000
      2 C2         -0.0816   -3.4032    6.4326 C.ar      1 <0>         0.0000
      3 C3         -1.8803   -4.1197    7.8777 C.ar      1 <0>         0.0000
      4 C4         -2.3777   -3.0408    5.7741 C.ar      1 <0>         0.0000
      5 C5         -1.0128   -2.9227    5.5119 C.ar      1 <0>         0.0000
      6 C6         -2.8114   -3.6393    6.9570 C.ar      1 <0>         0.0000
      7 C7         -0.5498   -2.2848    4.2523 C.2       1 <0>         0.0000
      8 C8          1.9325   -1.0133    2.6768 C.2       1 <0>         0.0000
      9 C9         -4.0623    0.8550    1.3177 C.3       1 <0>         0.0000
     10 C10        -3.5584   -1.5885    1.6583 C.3       1 <0>         0.0000
     11 C11         0.2195    0.8307    0.9188 C.3       1 <0>         0.0000
     12 C12        -1.0001    1.1700    0.0549 C.3       1 <0>         0.0000
     13 C13         2.3649   -0.5352    1.2935 C.3       1 <0>         0.0000
     14 C14         1.1534   -0.2750    0.3710 C.3       1 <0>         0.0000
     15 C15        -2.9754   -0.2124    1.3599 C.3       1 <0>         0.0000
     16 N1          1.6681    0.0834   -0.9557 N.3       1 <0>         0.0000
     17 N2          0.6851   -2.6985    3.7909 N.am      1 <0>         0.0000
     18 N3          1.1665   -2.1628    2.6216 N.am      1 <0>         0.0000
     19 O1         -1.2703   -1.4609    3.6944 O.2       1 <0>         0.0000
     20 O2          2.2299   -0.4108    3.7066 O.2       1 <0>         0.0000
     21 O3          3.2186   -1.5159    0.7230 O.3       1 <0>         0.0000
     22 S1         -2.0977   -0.2515   -0.2193 S.3       1 <0>         0.0000
     23 Cl1        -4.4955   -3.7857    7.2810 Cl        1 <0>         0.0000
     24 H1          0.2098   -4.3759    8.3321 H         1 <0>         0.0000
     25 H2          0.9846   -3.3169    6.2396 H         1 <0>         0.0000
     26 H3         -2.2034   -4.5883    8.8037 H         1 <0>         0.0000
     27 H4         -3.1019   -2.6655    5.0538 H         1 <0>         0.0000
     28 H5         -4.8019    0.6148    0.5457 H         1 <0>         0.0000
     29 H6         -4.5966    0.9180    2.2722 H         1 <0>         0.0000
     30 H7         -3.6542    1.8453    1.0855 H         1 <0>         0.0000
     31 H8         -4.2902   -1.8663    0.8915 H         1 <0>         0.0000
     32 H9         -4.0769   -1.6012    2.6234 H         1 <0>         0.0000
     33 H10        -2.7856   -2.3656    1.6725 H         1 <0>         0.0000
     34 H11        -0.1531    0.5335    1.9082 H         1 <0>         0.0000
     35 H12         0.7975    1.7493    1.0822 H         1 <0>         0.0000
     36 H13        -0.6573    1.5138   -0.9268 H         1 <0>         0.0000
     37 H14        -1.5832    1.9849    0.4933 H         1 <0>         0.0000
     38 H15         2.9484    0.3859    1.4229 H         1 <0>         0.0000
     39 H16         0.5915   -1.2082    0.2610 H         1 <0>         0.0000
     40 H17        -2.2476    0.0460    2.1366 H         1 <0>         0.0000
     41 H18         0.8845    0.1717   -1.5934 H         1 <0>         0.0000
     42 H19         2.2416   -0.6802   -1.2969 H         1 <0>         0.0000
     43 H20         1.2257   -3.3847    4.3060 H         1 <0>         0.0000
     44 H21         0.9630   -2.6038    1.7309 H         1 <0>         0.0000
     45 H22         2.7041   -2.3378    0.6655 H         1 <0>         0.0000
@<TRIPOS>BOND
     1    1    2 ar
     2    1    3 ar
     3    2    5 ar
     4    3    6 ar
     5    4    5 ar
     6    4    6 ar
     7    5    7 1
     8    6   23 1
     9    7   17 am
    10    7   19 2
    11    8   13 1
    12    8   18 am
    13    8   20 2
    14    9   15 1
    15   10   15 1
    16   11   12 1
    17   11   14 1
    18   12   22 1
    19   13   14 1
    20   13   21 1
    21   14   16 1
    22   15   22 1
    23   17   18 1
    24    1   24 1
    25    2   25 1
    26    3   26 1
    27    4   27 1
    28    9   28 1
    29    9   29 1
    30    9   30 1
    31   10   31 1
    32   10   32 1
    33   10   33 1
    34   11   34 1
    35   11   35 1
    36   12   36 1
    37   12   37 1
    38   13   38 1
    39   14   39 1
    40   15   40 1
    41   16   41 1
    42   16   42 1
    43   17   43 1
    44   18   44 1
    45   21   45 1
@<TRIPOS>MOLECULE
LIGAND
   45    45     0     0     0
SMALL
NO_CHARGES

@<TRIPOS>ATOM
      1 C1         -0.4443   -1.6789    8.4406 C.ar      1 <0>         0.0000
      2 C2          0.0752   -1.3786    7.1814 C.ar      1 <0>         0.0000
      3 C3         -0.0644   -0.9236    9.5500 C.ar      1 <0>         0.0000
      4 C4          1.3546    0.4323    8.1411 C.ar      1 <0>         0.0000
      5 C5          0.9746   -0.3231    7.0316 C.ar      1 <0>         0.0000
      6 C6          0.8350    0.1320    9.4003 C.ar      1 <0>         0.0000
      7 C7          1.5280   -0.0043    5.6900 C.2       1 <0>         0.0000
      8 C8          1.9325   -1.0133    2.6768 C.2       1 <0>         0.0000
      9 C9         -2.8125    0.5348   -2.7511 C.3       1 <0>         0.0000
     10 C10        -2.5812    3.0315   -2.9817 C.3       1 <0>         0.0000
     11 C11         1.5761    0.1765   -1.0474 C.3       1 <0>         0.0000
     12 C12         0.4360    0.4372   -2.0380 C.3       1 <0>         0.0000
     13 C13         2.3649   -0.5352    1.2935 C.3       1 <0>         0.0000
     14 C14         1.1534   -0.2750    0.3710 C.3       1 <0>         0.0000
     15 C15        -1.8423    1.7019   -2.8899 C.3       1 <0>         0.0000
     16 N1          0.3597   -1.5080    0.3138 N.3       1 <0>         0.0000
     17 N2          0.7320   -0.3536    4.6161 N.am      1 <0>         0.0000
     18 N3          1.1743   -0.0714    3.3469 N.am      1 <0>         0.0000
     19 O1          2.6215    0.5492    5.6056 O.2       1 <0>         0.0000
     20 O2          2.2555   -2.1109    3.1269 O.2       1 <0>         0.0000
     21 O3          3.2186   -1.5159    0.7230 O.3       1 <0>         0.0000
     22 S1         -0.7139    1.7277   -1.4786 S.3       1 <0>         0.0000
     23 Cl1         1.3030    1.0639   10.7696 Cl        1 <0>         0.0000
     24 H1         -1.1448   -2.5006    8.5569 H         1 <0>         0.0000
     25 H2         -0.2283   -1.9745    6.3244 H         1 <0>         0.0000
     26 H3         -0.4775   -1.1693   10.5250 H         1 <0>         0.0000
     27 H4          2.0560    1.2555    8.0212 H         1 <0>         0.0000
     28 H5         -3.4266    0.6553   -1.8516 H         1 <0>         0.0000
     29 H6         -3.4950    0.4797   -3.6065 H         1 <0>         0.0000
     30 H7         -2.2889   -0.4243   -2.6659 H         1 <0>         0.0000
     31 H8         -3.1918    3.1904   -2.0858 H         1 <0>         0.0000
     32 H9         -3.2564    3.0539   -3.8443 H         1 <0>         0.0000
     33 H10        -1.8903    3.8784   -3.0633 H         1 <0>         0.0000
     34 H11         2.1631    1.1018   -0.9736 H         1 <0>         0.0000
     35 H12         2.2520   -0.5707   -1.4824 H         1 <0>         0.0000
     36 H13        -0.1421   -0.4839   -2.1668 H         1 <0>         0.0000
     37 H14         0.8216    0.7132   -3.0237 H         1 <0>         0.0000
     38 H15         2.9484    0.3859    1.4229 H         1 <0>         0.0000
     39 H16         0.5249    0.4957    0.8291 H         1 <0>         0.0000
     40 H17        -1.2390    1.5625   -3.7933 H         1 <0>         0.0000
     41 H18        -0.4842   -1.3249   -0.2178 H         1 <0>         0.0000
     42 H19         0.0690   -1.7492    1.2550 H         1 <0>         0.0000
     43 H20        -0.1619   -0.8097    4.7623 H         1 <0>         0.0000
     44 H21         0.9480    0.8148    2.9078 H         1 <0>         0.0000
     45 H22         2.7041   -2.3378    0.6655 H         1 <0>         0.0000
@<TRIPOS>BOND
     1    1    2 ar
     2    1    3 ar
     3    2    5 ar
     4    3    6 ar
     5    4    5 ar
     6    4    6 ar
     7    5    7 1
     8    6   23 1
     9    7   17 am
    10    7   19 2
    11    8   13 1
    12    8   18 am
    13    8   20 2
    14    9   15 1
    15   10   15 1
    16   11   12 1
    17   11   14 1
    18   12   22 1
    19   13   14 1
    20   13   21 1
    21   14   16 1
    22   15   22 1
    23   17   18 1
    24    1   24 1
    25    2   25 1
    26    3   26 1
    27    4   27 1
    28    9   28 1
    29    9   29 1
    30    9   30 1
    31   10   31 1
    32   10   32 1
    33   10   33 1
    34   11   34 1
    35   11   35 1
    36   12   36 1
    37   12   37 1
    38   13   38 1
    39   14   39 1
    40   15   40 1
    41   16   41 1
    42   16   42 1
    43   17   43 1
    44   18   44 1
    45   21   45 1
@<TRIPOS>MOLECULE
LIGAND
   45    45     0     0     0
SMALL
NO_CHARGES

@<TRIPOS>ATOM
      1 C1          1.5193   -1.1198    9.1205 C.ar      1 <0>         0.0000
      2 C2          1.7609   -0.7407    7.8001 C.ar      1 <0>         0.0000
      3 C3          0.2116   -1.1709    9.6034 C.ar      1 <0>         0.0000
      4 C4         -0.6128   -0.4635    7.4454 C.ar      1 <0>         0.0000
      5 C5          0.6949   -0.4125    6.9626 C.ar      1 <0>         0.0000
      6 C6         -0.8544   -0.8427    8.7658 C.ar      1 <0>         0.0000
      7 C7          0.9532   -0.0081    5.5563 C.2       1 <0>         0.0000
      8 C8          1.9325   -1.0133    2.6768 C.2       1 <0>         0.0000
      9 C9         -4.0383    1.9882   -1.0273 C.3       1 <0>         0.0000
     10 C10        -3.4456    4.3900   -0.5583 C.3       1 <0>         0.0000
     11 C11         0.2195    0.8307    0.9188 C.3       1 <0>         0.0000
     12 C12        -1.0001    1.1700    0.0549 C.3       1 <0>         0.0000
     13 C13         2.3649   -0.5352    1.2935 C.3       1 <0>         0.0000
     14 C14         1.1534   -0.2750    0.3710 C.3       1 <0>         0.0000
     15 C15        -2.9141    2.9715   -0.7245 C.3       1 <0>         0.0000
     16 N1          1.6681    0.0834   -0.9557 N.3       1 <0>         0.0000
     17 N2          2.1084   -0.5131    4.9911 N.am      1 <0>         0.0000
     18 N3          2.3999   -0.1941    3.6876 N.am      1 <0>         0.0000
     19 O1          0.1465    0.7178    4.9806 O.2       1 <0>         0.0000
     20 O2          1.2610   -2.0296    2.8442 O.2       1 <0>         0.0000
     21 O3          3.2186   -1.5159    0.7230 O.3       1 <0>         0.0000
     22 S1         -2.0492    2.4644    0.7791 S.3       1 <0>         0.0000
     23 Cl1        -2.4677   -0.9064    9.3621 Cl        1 <0>         0.0000
     24 H1          2.3494   -1.3756    9.7724 H         1 <0>         0.0000
     25 H2          2.7843   -0.7045    7.4354 H         1 <0>         0.0000
     26 H3          0.0388   -1.4681   10.6345 H         1 <0>         0.0000
     27 H4         -1.4425   -0.2075    6.7896 H         1 <0>         0.0000
     28 H5         -4.7755    1.9915   -0.2167 H         1 <0>         0.0000
     29 H6         -4.5662    2.2576   -1.9489 H         1 <0>         0.0000
     30 H7         -3.6673    0.9620   -1.1303 H         1 <0>         0.0000
     31 H8         -4.1737    4.4304    0.2595 H         1 <0>         0.0000
     32 H9         -3.9550    4.7339   -1.4654 H         1 <0>         0.0000
     33 H10        -2.6458    5.1012   -0.3221 H         1 <0>         0.0000
     34 H11        -0.1531    0.5335    1.9082 H         1 <0>         0.0000
     35 H12         0.7975    1.7493    1.0822 H         1 <0>         0.0000
     36 H13        -1.6176    0.2727   -0.0585 H         1 <0>         0.0000
     37 H14        -0.7009    1.4813   -0.9501 H         1 <0>         0.0000
     38 H15         2.9484    0.3859    1.4229 H         1 <0>         0.0000
     39 H16         0.5915   -1.2082    0.2610 H         1 <0>         0.0000
     40 H17        -2.1892    2.9529   -1.5453 H         1 <0>         0.0000
     41 H18         0.8845    0.1717   -1.5934 H         1 <0>         0.0000
     42 H19         2.2416   -0.6802   -1.2969 H         1 <0>         0.0000
     43 H20         2.7293   -1.1081    5.5287 H         1 <0>         0.0000
     44 H21         2.9499    0.6302    3.4697 H         1 <0>         0.0000
     45 H22         2.7041   -2.3378    0.6655 H         1 <0>         0.0000
@<TRIPOS>BOND
     1    1    2 ar
     2    1    3 ar
     3    2    5 ar
     4    3    6 ar
     5    4    5 ar
     6    4    6 ar
     7    5    7 1
     8    6   23 1
     9    7   17 am
    10    7   19 2
    11    8   13 1
    12    8   18 am
    13    8   20 2
    14    9   15 1
    15   10   15 1
    16   11   12 1
    17   11   14 1
    18   12   22 1
    19   13   14 1
    20   13   21 1
    21   14   16 1
    22   15   22 1
    23   17   18 1
    24    1   24 1
    25    2   25 1
    26    3   26 1
    27    4   27 1
    28    9   28 1
    29    9   29 1
    30    9   30 1
    31   10   31 1
    32   10   32 1
    33   10   33 1
    34   11   34 1
    35   11   35 1
    36   12   36 1
    37   12   37 1
    38   13   38 1
    39   14   39 1
    40   15   40 1
    41   16   41 1
    42   16   42 1
    43   17   43 1
    44   18   44 1
    45   21   45 1
@<TRIPOS>MOLECULE
LIGAND
   45    45     0     0     0
SMALL
NO_CHARGES

@<TRIPOS>ATOM
      1 C1         -0.9264   -0.6930    8.4760 C.ar      1 <0>         0.0000
      2 C2         -0.4061   -0.3932    7.2170 C.ar      1 <0>         0.0000
      3 C3         -0.0659   -0.9225    9.5497 C.ar      1 <0>         0.0000
      4 C4          1.8351   -0.5526    8.1053 C.ar      1 <0>         0.0000
      5 C5          0.9746   -0.3231    7.0316 C.ar      1 <0>         0.0000
      6 C6          1.3148   -0.8524    9.3643 C.ar      1 <0>         0.0000
      7 C7          1.5280   -0.0043    5.6900 C.2       1 <0>         0.0000
      8 C8          1.9325   -1.0133    2.6768 C.2       1 <0>         0.0000
      9 C9         -2.8125    0.5348   -2.7511 C.3       1 <0>         0.0000
     10 C10        -2.5812    3.0315   -2.9817 C.3       1 <0>         0.0000
     11 C11         1.5761    0.1765   -1.0474 C.3       1 <0>         0.0000
     12 C12         0.4360    0.4372   -2.0380 C.3       1 <0>         0.0000
     13 C13         2.3649   -0.5352    1.2935 C.3       1 <0>         0.0000
     14 C14         1.1534   -0.2750    0.3710 C.3       1 <0>         0.0000
     15 C15        -1.8423    1.7019   -2.8899 C.3       1 <0>         0.0000
     16 N1          0.3597   -1.5080    0.3138 N.3       1 <0>         0.0000
     17 N2          0.7320   -0.3536    4.6161 N.am      1 <0>         0.0000
     18 N3          1.1743   -0.0714    3.3469 N.am      1 <0>         0.0000
     19 O1          2.6215    0.5492    5.6056 O.2       1 <0>         0.0000
     20 O2          2.2555   -2.1109    3.1269 O.2       1 <0>         0.0000
     21 O3          3.2186   -1.5159    0.7230 O.3       1 <0>         0.0000
     22 S1         -0.7139    1.7277   -1.4786 S.3       1 <0>         0.0000
     23 Cl1         2.3759   -1.1353   10.6896 Cl        1 <0>         0.0000
     24 H1         -2.0014   -0.7472    8.6202 H         1 <0>         0.0000
     25 H2         -1.0867   -0.2164    6.3881 H         1 <0>         0.0000
     26 H3         -0.4859   -1.1551   10.5249 H         1 <0>         0.0000
     27 H4          2.9117   -0.4967    7.9578 H         1 <0>         0.0000
     28 H5         -3.4266    0.6553   -1.8516 H         1 <0>         0.0000
     29 H6         -3.4950    0.4797   -3.6065 H         1 <0>         0.0000
     30 H7         -2.2889   -0.4243   -2.6659 H         1 <0>         0.0000
     31 H8         -3.1918    3.1904   -2.0858 H         1 <0>         0.0000
     32 H9         -3.2564    3.0539   -3.8443 H         1 <0>         0.0000
     33 H10        -1.8903    3.8784   -3.0633 H         1 <0>         0.0000
     34 H11         2.1631    1.1018   -0.9736 H         1 <0>         0.0000
     35 H12         2.2520   -0.5707   -1.4824 H         1 <0>         0.0000
     36 H13        -0.1421   -0.4839   -2.1668 H         1 <0>         0.0000
     37 H14         0.8216    0.7132   -3.0237 H         1 <0>         0.0000
     38 H15         2.9484    0.3859    1.4229 H         1 <0>         0.0000
     39 H16         0.5249    0.4957    0.8291 H         1 <0>         0.0000
     40 H17        -1.2390    1.5625   -3.7933 H         1 <0>         0.0000
     41 H18        -0.4842   -1.3249   -0.2178 H         1 <0>         0.0000
     42 H19         0.0690   -1.7492    1.2550 H         1 <0>         0.0000
     43 H20        -0.1619   -0.8097    4.7623 H         1 <0>         0.0000
     44 H21         0.9480    0.8148    2.9078 H         1 <0>         0.0000
     45 H22         2.7041   -2.3378    0.6655 H         1 <0>         0.0000
@<TRIPOS>BOND
     1    1    2 ar
     2    1    3 ar
     3    2    5 ar
     4    3    6 ar
     5    4    5 ar
     6    4    6 ar
     7    5    7 1
     8    6   23 1
     9    7   17 am
    10    7   19 2
    11    8   13 1
    12    8   18 am
    13    8   20 2
    14    9   15 1
    15   10   15 1
    16   11   12 1
    17   11   14 1
    18   12   22 1
    19   13   14 1
    20   13   21 1
    21   14   16 1
    22   15   22 1
    23   17   18 1
    24    1   24 1
    25    2   25 1
    26    3   26 1
    27    4   27 1
    28    9   28 1
    29    9   29 1
    30    9   30 1
    31   10   31 1
    32   10   32 1
    33   10   33 1
    34   11   34 1
    35   11   35 1
    36   12   36 1
    37   12   37 1
    38   13   38 1
    39   14   39 1
    40   15   40 1
    41   16   41 1
    42   16   42 1
    43   17   43 1
    44   18   44 1
    45   21   45 1
@<TRIPOS>MOLECULE
LIGAND
   45    45     0     0     0
SMALL
NO_CHARGES

@<TRIPOS>ATOM
      1 C1         -0.4443   -1.6789    8.4406 C.ar      1 <0>         0.0000
      2 C2          0.0752   -1.3786    7.1814 C.ar      1 <0>         0.0000
      3 C3         -0.0644   -0.9236    9.5500 C.ar      1 <0>         0.0000
      4 C4          1.3546    0.4323    8.1411 C.ar      1 <0>         0.0000
      5 C5          0.9746   -0.3231    7.0316 C.ar      1 <0>         0.0000
      6 C6          0.8350    0.1320    9.4003 C.ar      1 <0>         0.0000
      7 C7          1.5280   -0.0043    5.6900 C.2       1 <0>         0.0000
      8 C8          1.9325   -1.0133    2.6768 C.2       1 <0>         0.0000
      9 C9          0.1128    3.4388   -3.4370 C.3       1 <0>         0.0000
     10 C10        -0.1648    4.3761   -1.1165 C.3       1 <0>         0.0000
     11 C11         1.5761    0.1765   -1.0474 C.3       1 <0>         0.0000
     12 C12         0.4360    0.4372   -2.0380 C.3       1 <0>         0.0000
     13 C13         2.3649   -0.5352    1.2935 C.3       1 <0>         0.0000
     14 C14         1.1534   -0.2750    0.3710 C.3       1 <0>         0.0000
     15 C15         0.2674    3.1720   -1.9445 C.3       1 <0>         0.0000
     16 N1          0.3597   -1.5080    0.3138 N.3       1 <0>         0.0000
     17 N2          0.7320   -0.3536    4.6161 N.am      1 <0>         0.0000
     18 N3          1.1743   -0.0714    3.3469 N.am      1 <0>         0.0000
     19 O1          2.6215    0.5492    5.6056 O.2       1 <0>         0.0000
     20 O2          2.2555   -2.1109    3.1269 O.2       1 <0>         0.0000
     21 O3          3.2186   -1.5159    0.7230 O.3       1 <0>         0.0000
     22 S1         -0.7139    1.7277   -1.4786 S.3       1 <0>         0.0000
     23 Cl1         1.3030    1.0639   10.7696 Cl        1 <0>         0.0000
     24 H1         -1.1448   -2.5006    8.5569 H         1 <0>         0.0000
     25 H2         -0.2283   -1.9745    6.3244 H         1 <0>         0.0000
     26 H3         -0.4775   -1.1693   10.5250 H         1 <0>         0.0000
     27 H4          2.0560    1.2555    8.0212 H         1 <0>         0.0000
     28 H5         -0.9313    3.6698   -3.6761 H         1 <0>         0.0000
     29 H6          0.7168    4.2965   -3.7534 H         1 <0>         0.0000
     30 H7          0.4041    2.5712   -4.0399 H         1 <0>         0.0000
     31 H8         -1.2132    4.6215   -1.3199 H         1 <0>         0.0000
     32 H9          0.4307    5.2627   -1.3609 H         1 <0>         0.0000
     33 H10        -0.0742    4.1863   -0.0408 H         1 <0>         0.0000
     34 H11         2.1631    1.1018   -0.9736 H         1 <0>         0.0000
     35 H12         2.2520   -0.5707   -1.4824 H         1 <0>         0.0000
     36 H13        -0.1421   -0.4839   -2.1668 H         1 <0>         0.0000
     37 H14         0.8216    0.7132   -3.0237 H         1 <0>         0.0000
     38 H15         2.9484    0.3859    1.4229 H         1 <0>         0.0000
     39 H16         0.5249    0.4957    0.8291 H         1 <0>         0.0000
     40 H17         1.3162    2.9436   -1.7268 H         1 <0>         0.0000
     41 H18        -0.4842   -1.3249   -0.2178 H         1 <0>         0.0000
     42 H19         0.0690   -1.7492    1.2550 H         1 <0>         0.0000
     43 H20        -0.1619   -0.8097    4.7623 H         1 <0>         0.0000
     44 H21         0.9480    0.8148    2.9078 H         1 <0>         0.0000
     45 H22         2.7041   -2.3378    0.6655 H         1 <0>         0.0000
@<TRIPOS>BOND
     1    1    2 ar
     2    1    3 ar
     3    2    5 ar
     4    3    6 ar
     5    4    5 ar
     6    4    6 ar
     7    5    7 1
     8    6   23 1
     9    7   17 am
    10    7   19 2
    11    8   13 1
    12    8   18 am
    13    8   20 2
    14    9   15 1
    15   10   15 1
    16   11   12 1
    17   11   14 1
    18   12   22 1
    19   13   14 1
    20   13   21 1
    21   14   16 1
    22   15   22 1
    23   17   18 1
    24    1   24 1
    25    2   25 1
    26    3   26 1
    27    4   27 1
    28    9   28 1
    29    9   29 1
    30    9   30 1
    31   10   31 1
    32   10   32 1
    33   10   33 1
    34   11   34 1
    35   11   35 1
    36   12   36 1
    37   12   37 1
    38   13   38 1
    39   14   39 1
    40   15   40 1
    41   16   41 1
    42   16   42 1
    43   17   43 1
    44   18   44 1
    45   21   45 1
@<TRIPOS>MOLECULE
LIGAND
   45    45     0     0     0
SMALL
NO_CHARGES

@<TRIPOS>ATOM
      1 C1          1.3691   -2.5452    8.7036 C.ar      1 <0>         0.0000
      2 C2          1.5963   -2.0804    7.4082 C.ar      1 <0>         0.0000
      3 C3          1.1963   -1.6386    9.7496 C.ar      1 <0>         0.0000
      4 C4          1.4779    0.1975    8.2048 C.ar      1 <0>         0.0000
      5 C5          1.6507   -0.7090    7.1588 C.ar      1 <0>         0.0000
      6 C6          1.2507   -0.2673    9.5002 C.ar      1 <0>         0.0000
      7 C7          1.8934   -0.2148    5.7787 C.2       1 <0>         0.0000
      8 C8          1.9325   -1.0133    2.6768 C.2       1 <0>         0.0000
      9 C9         -2.4695    4.5098    0.4722 C.3       1 <0>         0.0000
     10 C10        -0.2177    4.7761   -0.6229 C.3       1 <0>         0.0000
     11 C11         0.2195    0.8307    0.9188 C.3       1 <0>         0.0000
     12 C12         0.8590    2.2074    1.1305 C.3       1 <0>         0.0000
     13 C13         2.3649   -0.5352    1.2935 C.3       1 <0>         0.0000
     14 C14         1.1534   -0.2750    0.3710 C.3       1 <0>         0.0000
     15 C15        -1.1189    3.8600    0.1963 C.3       1 <0>         0.0000
     16 N1          1.6681    0.0834   -0.9557 N.3       1 <0>         0.0000
     17 N2          2.6023   -1.0670    4.9540 N.am      1 <0>         0.0000
     18 N3          2.8469   -0.6810    3.6590 N.am      1 <0>         0.0000
     19 O1          1.4534    0.8829    5.4461 O.2       1 <0>         0.0000
     20 O2          0.8915   -1.6405    2.8632 O.2       1 <0>         0.0000
     21 O3          3.2186   -1.5159    0.7230 O.3       1 <0>         0.0000
     22 S1         -0.3102    3.4478    1.7590 S.3       1 <0>         0.0000
     23 Cl1         1.0368    0.8507   10.7913 Cl        1 <0>         0.0000
     24 H1          1.3265   -3.6129    8.8975 H         1 <0>         0.0000
     25 H2          1.7296   -2.7965    6.6014 H         1 <0>         0.0000
     26 H3          1.0200   -2.0156   10.7537 H         1 <0>         0.0000
     27 H4          1.5203    1.2667    8.0072 H         1 <0>         0.0000
     28 H5         -2.3352    5.4486    1.0211 H         1 <0>         0.0000
     29 H6         -2.9944    4.7495   -0.4593 H         1 <0>         0.0000
     30 H7         -3.1176    3.8651    1.0767 H         1 <0>         0.0000
     31 H8         -0.0488    5.7190   -0.0908 H         1 <0>         0.0000
     32 H9         -0.6728    5.0239   -1.5883 H         1 <0>         0.0000
     33 H10         0.7629    4.3240   -0.8105 H         1 <0>         0.0000
     34 H11        -0.6259    0.9652    0.2307 H         1 <0>         0.0000
     35 H12        -0.2197    0.5004    1.8688 H         1 <0>         0.0000
     36 H13         1.2423    2.5738    0.1722 H         1 <0>         0.0000
     37 H14         1.7108    2.1489    1.8142 H         1 <0>         0.0000
     38 H15         2.9484    0.3859    1.4229 H         1 <0>         0.0000
     39 H16         0.5915   -1.2082    0.2610 H         1 <0>         0.0000
     40 H17        -1.2750    2.9249   -0.3521 H         1 <0>         0.0000
     41 H18         0.8845    0.1717   -1.5934 H         1 <0>         0.0000
     42 H19         2.2416   -0.6802   -1.2969 H         1 <0>         0.0000
     43 H20         2.9356   -1.9607    5.2985 H         1 <0>         0.0000
     44 H21         3.6858   -0.1599    3.4266 H         1 <0>         0.0000
     45 H22         2.7041   -2.3378    0.6655 H         1 <0>         0.0000
@<TRIPOS>BOND
     1    1    2 ar
     2    1    3 ar
     3    2    5 ar
     4    3    6 ar
     5    4    5 ar
     6    4    6 ar
     7    5    7 1
     8    6   23 1
     9    7   17 am
    10    7   19 2
    11    8   13 1
    12    8   18 am
    13    8   20 2
    14    9   15 1
    15   10   15 1
    16   11   12 1
    17   11   14 1
    18   12   22 1
    19   13   14 1
    20   13   21 1
    21   14   16 1
    22   15   22 1
    23   17   18 1
    24    1   24 1
    25    2   25 1
    26    3   26 1
    27    4   27 1
    28    9   28 1
    29    9   29 1
    30    9   30 1
    31   10   31 1
    32   10   32 1
    33   10   33 1
    34   11   34 1
    35   11   35 1
    36   12   36 1
    37   12   37 1
    38   13   38 1
    39   14   39 1
    40   15   40 1
    41   16   41 1
    42   16   42 1
    43   17   43 1
    44   18   44 1
    45   21   45 1
@<TRIPOS>MOLECULE
LIGAND
   45    45     0     0     0
SMALL
NO_CHARGES

@<TRIPOS>ATOM
      1 C1         -0.5558   -3.8525    7.6500 C.ar      1 <0>         0.0000
      2 C2         -0.0131   -3.3653    6.4611 C.ar      1 <0>         0.0000
      3 C3         -0.2084   -5.1243    8.1058 C.ar      1 <0>         0.0000
      4 C4          1.2244   -5.4217    6.1834 C.ar      1 <0>         0.0000
      5 C5          0.8770   -4.1499    5.7277 C.ar      1 <0>         0.0000
      6 C6          0.6817   -5.9089    7.3724 C.ar      1 <0>         0.0000
      7 C7          1.4542   -3.6304    4.4609 C.2       1 <0>         0.0000
      8 C8          1.9325   -1.0133    2.6768 C.2       1 <0>         0.0000
      9 C9         -2.8396    0.6809   -2.6742 C.3       1 <0>         0.0000
     10 C10        -4.6560   -0.1960   -1.1670 C.3       1 <0>         0.0000
     11 C11         0.2195    0.8307    0.9188 C.3       1 <0>         0.0000
     12 C12        -1.0001    1.1700    0.0549 C.3       1 <0>         0.0000
     13 C13         2.3649   -0.5352    1.2935 C.3       1 <0>         0.0000
     14 C14         1.1534   -0.2750    0.3710 C.3       1 <0>         0.0000
     15 C15        -3.3416    0.5718   -1.2395 C.3       1 <0>         0.0000
     16 N1          1.6681    0.0834   -0.9557 N.3       1 <0>         0.0000
     17 N2          0.6851   -2.6985    3.7909 N.am      1 <0>         0.0000
     18 N3          1.1665   -2.1628    2.6216 N.am      1 <0>         0.0000
     19 O1          2.5559   -4.0300    4.0926 O.2       1 <0>         0.0000
     20 O2          2.2299   -0.4108    3.7066 O.2       1 <0>         0.0000
     21 O3          3.2186   -1.5159    0.7230 O.3       1 <0>         0.0000
     22 S1         -2.0977   -0.2515   -0.2193 S.3       1 <0>         0.0000
     23 Cl1         1.1103   -7.4778    7.9355 Cl        1 <0>         0.0000
     24 H1         -1.2485   -3.2413    8.2210 H         1 <0>         0.0000
     25 H2         -0.2915   -2.3728    6.1162 H         1 <0>         0.0000
     26 H3         -0.6392   -5.4905    9.0340 H         1 <0>         0.0000
     27 H4          1.9195   -6.0313    5.6095 H         1 <0>         0.0000
     28 H5         -2.6847   -0.3167   -3.1002 H         1 <0>         0.0000
     29 H6         -3.5648    1.1984   -3.3121 H         1 <0>         0.0000
     30 H7         -1.8850    1.2160   -2.7338 H         1 <0>         0.0000
     31 H8         -4.5291   -1.2071   -1.5698 H         1 <0>         0.0000
     32 H9         -5.4375    0.2943   -1.7580 H         1 <0>         0.0000
     33 H10        -5.0153   -0.2952   -0.1363 H         1 <0>         0.0000
     34 H11        -0.1531    0.5335    1.9082 H         1 <0>         0.0000
     35 H12         0.7975    1.7493    1.0822 H         1 <0>         0.0000
     36 H13        -0.6573    1.5138   -0.9268 H         1 <0>         0.0000
     37 H14        -1.5832    1.9849    0.4933 H         1 <0>         0.0000
     38 H15         2.9484    0.3859    1.4229 H         1 <0>         0.0000
     39 H16         0.5915   -1.2082    0.2610 H         1 <0>         0.0000
     40 H17        -3.4899    1.5778   -0.8328 H         1 <0>         0.0000
     41 H18         0.8845    0.1717   -1.5934 H         1 <0>         0.0000
     42 H19         2.2416   -0.6802   -1.2969 H         1 <0>         0.0000
     43 H20        -0.2179   -2.4154    4.1557 H         1 <0>         0.0000
     44 H21         0.9630   -2.6038    1.7309 H         1 <0>         0.0000
     45 H22         2.7041   -2.3378    0.6655 H         1 <0>         0.0000
@<TRIPOS>BOND
     1    1    2 ar
     2    1    3 ar
     3    2    5 ar
     4    3    6 ar
     5    4    5 ar
     6    4    6 ar
     7    5    7 1
     8    6   23 1
     9    7   17 am
    10    7   19 2
    11    8   13 1
    12    8   18 am
    13    8   20 2
    14    9   15 1
    15   10   15 1
    16   11   12 1
    17   11   14 1
    18   12   22 1
    19   13   14 1
    20   13   21 1
    21   14   16 1
    22   15   22 1
    23   17   18 1
    24    1   24 1
    25    2   25 1
    26    3   26 1
    27    4   27 1
    28    9   28 1
    29    9   29 1
    30    9   30 1
    31   10   31 1
    32   10   32 1
    33   10   33 1
    34   11   34 1
    35   11   35 1
    36   12   36 1
    37   12   37 1
    38   13   38 1
    39   14   39 1
    40   15   40 1
    41   16   41 1
    42   16   42 1
    43   17   43 1
    44   18   44 1
    45   21   45 1
@<TRIPOS>MOLECULE
LIGAND
   45    45     0     0     0
SMALL
NO_CHARGES

@<TRIPOS>ATOM
      1 C1          3.9068   -1.8228    9.5212 C.ar      1 <0>         0.0000
      2 C2          4.2280   -1.4546    8.2148 C.ar      1 <0>         0.0000
      3 C3          2.6909   -2.4514    9.7897 C.ar      1 <0>         0.0000
      4 C4          2.1173   -2.3434    7.4453 C.ar      1 <0>         0.0000
      5 C5          3.3333   -1.7148    7.1768 C.ar      1 <0>         0.0000
      6 C6          1.7961   -2.7117    8.7518 C.ar      1 <0>         0.0000
      7 C7          3.6760   -1.3216    5.7855 C.2       1 <0>         0.0000
      8 C8          1.9325   -1.0133    2.6768 C.2       1 <0>         0.0000
      9 C9         -0.3459    6.1254    1.2341 C.3       1 <0>         0.0000
     10 C10         1.7475    5.1698    2.2562 C.3       1 <0>         0.0000
     11 C11         0.2195    0.8307    0.9188 C.3       1 <0>         0.0000
     12 C12         0.8590    2.2074    1.1305 C.3       1 <0>         0.0000
     13 C13         2.3649   -0.5352    1.2935 C.3       1 <0>         0.0000
     14 C14         1.1534   -0.2750    0.3710 C.3       1 <0>         0.0000
     15 C15         0.6016    4.9327    1.2798 C.3       1 <0>         0.0000
     16 N1          1.6681    0.0834   -0.9557 N.3       1 <0>         0.0000
     17 N2          2.6023   -1.0670    4.9540 N.am      1 <0>         0.0000
     18 N3          2.8469   -0.6810    3.6590 N.am      1 <0>         0.0000
     19 O1          4.8567   -1.2304    5.4589 O.2       1 <0>         0.0000
     20 O2          0.8915   -1.6405    2.8632 O.2       1 <0>         0.0000
     21 O3          3.2186   -1.5159    0.7230 O.3       1 <0>         0.0000
     22 S1         -0.3102    3.4478    1.7590 S.3       1 <0>         0.0000
     23 Cl1         0.2961   -3.4877    9.0838 Cl        1 <0>         0.0000
     24 H1          4.6037   -1.6204   10.3291 H         1 <0>         0.0000
     25 H2          5.1785   -0.9653    8.0180 H         1 <0>         0.0000
     26 H3          2.4542   -2.7326   10.8127 H         1 <0>         0.0000
     27 H4          1.4214   -2.5457    6.6335 H         1 <0>         0.0000
     28 H5         -0.7677    6.3147    2.2275 H         1 <0>         0.0000
     29 H6          0.1756    7.0373    0.9225 H         1 <0>         0.0000
     30 H7         -1.1835    5.9561    0.5478 H         1 <0>         0.0000
     31 H8          1.3579    5.3444    3.2653 H         1 <0>         0.0000
     32 H9          2.3340    6.0519    1.9762 H         1 <0>         0.0000
     33 H10         2.4242    4.3092    2.3091 H         1 <0>         0.0000
     34 H11        -0.6259    0.9652    0.2307 H         1 <0>         0.0000
     35 H12        -0.2197    0.5004    1.8688 H         1 <0>         0.0000
     36 H13         1.2423    2.5738    0.1722 H         1 <0>         0.0000
     37 H14         1.7108    2.1489    1.8142 H         1 <0>         0.0000
     38 H15         2.9484    0.3859    1.4229 H         1 <0>         0.0000
     39 H16         0.5915   -1.2082    0.2610 H         1 <0>         0.0000
     40 H17         1.0117    4.7605    0.2790 H         1 <0>         0.0000
     41 H18         0.8845    0.1717   -1.5934 H         1 <0>         0.0000
     42 H19         2.2416   -0.6802   -1.2969 H         1 <0>         0.0000
     43 H20         1.6516   -1.1634    5.2936 H         1 <0>         0.0000
     44 H21         3.6858   -0.1599    3.4266 H         1 <0>         0.0000
     45 H22         2.7041   -2.3378    0.6655 H         1 <0>         0.0000
@<TRIPOS>BOND
     1    1    2 ar
     2    1    3 ar
     3    2    5 ar
     4    3    6 ar
     5    4    5 ar
     6    4    6 ar
     7    5    7 1
     8    6   23 1
     9    7   17 am
    10    7   19 2
    11    8   13 1
    12    8   18 am
    13    8   20 2
    14    9   15 1
    15   10   15 1
    16   11   12 1
    17   11   14 1
    18   12   22 1
    19   13   14 1
    20   13   21 1
    21   14   16 1
    22   15   22 1
    23   17   18 1
    24    1   24 1
    25    2   25 1
    26    3   26 1
    27    4   27 1
    28    9   28 1
    29    9   29 1
    30    9   30 1
    31   10   31 1
    32   10   32 1
    33   10   33 1
    34   11   34 1
    35   11   35 1
    36   12   36 1
    37   12   37 1
    38   13   38 1
    39   14   39 1
    40   15   40 1
    41   16   41 1
    42   16   42 1
    43   17   43 1
    44   18   44 1
    45   21   45 1
@<TRIPOS>MOLECULE
LIGAND
   45    45     0     0     0
SMALL
NO_CHARGES

@<TRIPOS>ATOM
      1 C1         -0.9264   -0.6930    8.4760 C.ar      1 <0>         0.0000
      2 C2         -0.4061   -0.3932    7.2170 C.ar      1 <0>         0.0000
      3 C3         -0.0659   -0.9225    9.5497 C.ar      1 <0>         0.0000
      4 C4          1.8351   -0.5526    8.1053 C.ar      1 <0>         0.0000
      5 C5          0.9746   -0.3231    7.0316 C.ar      1 <0>         0.0000
      6 C6          1.3148   -0.8524    9.3643 C.ar      1 <0>         0.0000
      7 C7          1.5280   -0.0043    5.6900 C.2       1 <0>         0.0000
      8 C8          1.9325   -1.0133    2.6768 C.2       1 <0>         0.0000
      9 C9          0.1128    3.4388   -3.4370 C.3       1 <0>         0.0000
     10 C10        -0.1648    4.3761   -1.1165 C.3       1 <0>         0.0000
     11 C11         1.5761    0.1765   -1.0474 C.3       1 <0>         0.0000
     12 C12         0.4360    0.4372   -2.0380 C.3       1 <0>         0.0000
     13 C13         2.3649   -0.5352    1.2935 C.3       1 <0>         0.0000
     14 C14         1.1534   -0.2750    0.3710 C.3       1 <0>         0.0000
     15 C15         0.2674    3.1720   -1.9445 C.3       1 <0>         0.0000
     16 N1          0.3597   -1.5080    0.3138 N.3       1 <0>         0.0000
     17 N2          0.7320   -0.3536    4.6161 N.am      1 <0>         0.0000
     18 N3          1.1743   -0.0714    3.3469 N.am      1 <0>         0.0000
     19 O1          2.6215    0.5492    5.6056 O.2       1 <0>         0.0000
     20 O2          2.2555   -2.1109    3.1269 O.2       1 <0>         0.0000
     21 O3          3.2186   -1.5159    0.7230 O.3       1 <0>         0.0000
     22 S1         -0.7139    1.7277   -1.4786 S.3       1 <0>         0.0000
     23 Cl1         2.3759   -1.1353   10.6896 Cl        1 <0>         0.0000
     24 H1         -2.0014   -0.7472    8.6202 H         1 <0>         0.0000
     25 H2         -1.0867   -0.2164    6.3881 H         1 <0>         0.0000
     26 H3         -0.4859   -1.1551   10.5249 H         1 <0>         0.0000
     27 H4          2.9117   -0.4967    7.9578 H         1 <0>         0.0000
     28 H5         -0.9313    3.6698   -3.6761 H         1 <0>         0.0000
     29 H6          0.7168    4.2965   -3.7534 H         1 <0>         0.0000
     30 H7          0.4041    2.5712   -4.0399 H         1 <0>         0.0000
     31 H8         -1.2132    4.6215   -1.3199 H         1 <0>         0.0000
     32 H9          0.4307    5.2627   -1.3609 H         1 <0>         0.0000
     33 H10        -0.0742    4.1863   -0.0408 H         1 <0>         0.0000
     34 H11         2.1631    1.1018   -0.9736 H         1 <0>         0.0000
     35 H12         2.2520   -0.5707   -1.4824 H         1 <0>         0.0000
     36 H13        -0.1421   -0.4839   -2.1668 H         1 <0>         0.0000
     37 H14         0.8216    0.7132   -3.0237 H         1 <0>         0.0000
     38 H15         2.9484    0.3859    1.4229 H         1 <0>         0.0000
     39 H16         0.5249    0.4957    0.8291 H         1 <0>         0.0000
     40 H17         1.3162    2.9436   -1.7268 H         1 <0>         0.0000
     41 H18        -0.4842   -1.3249   -0.2178 H         1 <0>         0.0000
     42 H19         0.0690   -1.7492    1.2550 H         1 <0>         0.0000
     43 H20        -0.1619   -0.8097    4.7623 H         1 <0>         0.0000
     44 H21         0.9480    0.8148    2.9078 H         1 <0>         0.0000
     45 H22         2.7041   -2.3378    0.6655 H         1 <0>         0.0000
@<TRIPOS>BOND
     1    1    2 ar
     2    1    3 ar
     3    2    5 ar
     4    3    6 ar
     5    4    5 ar
     6    4    6 ar
     7    5    7 1
     8    6   23 1
     9    7   17 am
    10    7   19 2
    11    8   13 1
    12    8   18 am
    13    8   20 2
    14    9   15 1
    15   10   15 1
    16   11   12 1
    17   11   14 1
    18   12   22 1
    19   13   14 1
    20   13   21 1
    21   14   16 1
    22   15   22 1
    23   17   18 1
    24    1   24 1
    25    2   25 1
    26    3   26 1
    27    4   27 1
    28    9   28 1
    29    9   29 1
    30    9   30 1
    31   10   31 1
    32   10   32 1
    33   10   33 1
    34   11   34 1
    35   11   35 1
    36   12   36 1
    37   12   37 1
    38   13   38 1
    39   14   39 1
    40   15   40 1
    41   16   41 1
    42   16   42 1
    43   17   43 1
    44   18   44 1
    45   21   45 1
@<TRIPOS>MOLECULE
LIGAND
   45    45     0     0     0
SMALL
NO_CHARGES

@<TRIPOS>ATOM
      1 C1         -2.1326   -2.6043    7.7561 C.ar      1 <0>         0.0000
      2 C2         -1.7551   -2.3302    6.4416 C.ar      1 <0>         0.0000
      3 C3         -1.6491   -1.8151    8.7997 C.ar      1 <0>         0.0000
      4 C4         -0.4104   -0.4776    7.2142 C.ar      1 <0>         0.0000
      5 C5         -0.8940   -1.2668    6.1707 C.ar      1 <0>         0.0000
      6 C6         -0.7879   -0.7518    8.5287 C.ar      1 <0>         0.0000
      7 C7         -0.4919   -0.9759    4.7701 C.2       1 <0>         0.0000
      8 C8          1.9325   -1.0133    2.6768 C.2       1 <0>         0.0000
      9 C9         -3.1756    2.3246   -2.4935 C.3       1 <0>         0.0000
     10 C10        -1.2120    2.4385   -4.0656 C.3       1 <0>         0.0000
     11 C11         1.5761    0.1765   -1.0474 C.3       1 <0>         0.0000
     12 C12         0.4360    0.4372   -2.0380 C.3       1 <0>         0.0000
     13 C13         2.3649   -0.5352    1.2935 C.3       1 <0>         0.0000
     14 C14         1.1534   -0.2750    0.3710 C.3       1 <0>         0.0000
     15 C15        -1.8423    1.7019   -2.8899 C.3       1 <0>         0.0000
     16 N1          0.3597   -1.5080    0.3138 N.3       1 <0>         0.0000
     17 N2          0.7320   -0.3536    4.6161 N.am      1 <0>         0.0000
     18 N3          1.1743   -0.0714    3.3469 N.am      1 <0>         0.0000
     19 O1         -1.2351   -1.3059    3.8493 O.2       1 <0>         0.0000
     20 O2          2.2555   -2.1109    3.1269 O.2       1 <0>         0.0000
     21 O3          3.2186   -1.5159    0.7230 O.3       1 <0>         0.0000
     22 S1         -0.7139    1.7277   -1.4786 S.3       1 <0>         0.0000
     23 Cl1        -0.1920    0.2220    9.8169 Cl        1 <0>         0.0000
     24 H1         -2.8034   -3.4321    7.9668 H         1 <0>         0.0000
     25 H2         -2.1385   -2.9523    5.6369 H         1 <0>         0.0000
     26 H3         -1.9519   -2.0407    9.8189 H         1 <0>         0.0000
     27 H4          0.2608    0.3516    6.9998 H         1 <0>         0.0000
     28 H5         -3.0368    3.3747   -2.2131 H         1 <0>         0.0000
     29 H6         -3.8895    2.3010   -3.3245 H         1 <0>         0.0000
     30 H7         -3.6275    1.8123   -1.6365 H         1 <0>         0.0000
     31 H8         -1.0430    3.4904   -3.8095 H         1 <0>         0.0000
     32 H9         -1.8649    2.4183   -4.9453 H         1 <0>         0.0000
     33 H10        -0.2436    2.0085   -4.3458 H         1 <0>         0.0000
     34 H11         2.1631    1.1018   -0.9736 H         1 <0>         0.0000
     35 H12         2.2520   -0.5707   -1.4824 H         1 <0>         0.0000
     36 H13        -0.1421   -0.4839   -2.1668 H         1 <0>         0.0000
     37 H14         0.8216    0.7132   -3.0237 H         1 <0>         0.0000
     38 H15         2.9484    0.3859    1.4229 H         1 <0>         0.0000
     39 H16         0.5249    0.4957    0.8291 H         1 <0>         0.0000
     40 H17        -2.0027    0.6542   -3.1661 H         1 <0>         0.0000
     41 H18        -0.4842   -1.3249   -0.2178 H         1 <0>         0.0000
     42 H19         0.0690   -1.7492    1.2550 H         1 <0>         0.0000
     43 H20         1.2931   -0.1098    5.4249 H         1 <0>         0.0000
     44 H21         0.9480    0.8148    2.9078 H         1 <0>         0.0000
     45 H22         2.7041   -2.3378    0.6655 H         1 <0>         0.0000
@<TRIPOS>BOND
     1    1    2 ar
     2    1    3 ar
     3    2    5 ar
     4    3    6 ar
     5    4    5 ar
     6    4    6 ar
     7    5    7 1
     8    6   23 1
     9    7   17 am
    10    7   19 2
    11    8   13 1
    12    8   18 am
    13    8   20 2
    14    9   15 1
    15   10   15 1
    16   11   12 1
    17   11   14 1
    18   12   22 1
    19   13   14 1
    20   13   21 1
    21   14   16 1
    22   15   22 1
    23   17   18 1
    24    1   24 1
    25    2   25 1
    26    3   26 1
    27    4   27 1
    28    9   28 1
    29    9   29 1
    30    9   30 1
    31   10   31 1
    32   10   32 1
    33   10   33 1
    34   11   34 1
    35   11   35 1
    36   12   36 1
    37   12   37 1
    38   13   38 1
    39   14   39 1
    40   15   40 1
    41   16   41 1
    42   16   42 1
    43   17   43 1
    44   18   44 1
    45   21   45 1
@<TRIPOS>MOLECULE
LIGAND
   45    45     0     0     0
SMALL
NO_CHARGES

@<TRIPOS>ATOM
      1 C1          1.4022   -1.9431    8.8928 C.ar      1 <0>         0.0000
      2 C2          1.7709   -1.6033    7.5913 C.ar      1 <0>         0.0000
      3 C3          1.8731   -1.1920    9.9698 C.ar      1 <0>         0.0000
      4 C4          3.0815    0.2388    8.4435 C.ar      1 <0>         0.0000
      5 C5          2.6105   -0.5124    7.3666 C.ar      1 <0>         0.0000
      6 C6          2.7127   -0.1010    9.7451 C.ar      1 <0>         0.0000
      7 C7          3.0033   -0.1514    5.9797 C.2       1 <0>         0.0000
      8 C8          1.9325   -1.0133    2.6768 C.2       1 <0>         0.0000
      9 C9          0.0327    2.2317    5.0129 C.3       1 <0>         0.0000
     10 C10        -2.4052    1.6484    4.7751 C.3       1 <0>         0.0000
     11 C11        -0.0095    0.4324    1.1072 C.3       1 <0>         0.0000
     12 C12         0.3168    1.7958    1.7266 C.3       1 <0>         0.0000
     13 C13         2.3649   -0.5352    1.2935 C.3       1 <0>         0.0000
     14 C14         1.1534   -0.2750    0.3710 C.3       1 <0>         0.0000
     15 C15        -1.0363    1.6350    4.1054 C.3       1 <0>         0.0000
     16 N1          1.6190    0.5274   -0.7660 N.3       1 <0>         0.0000
     17 N2          2.1084   -0.5131    4.9911 N.am      1 <0>         0.0000
     18 N3          2.3999   -0.1941    3.6876 N.am      1 <0>         0.0000
     19 O1          4.0607    0.4441    5.7889 O.2       1 <0>         0.0000
     20 O2          1.2610   -2.0296    2.8442 O.2       1 <0>         0.0000
     21 O3          3.2186   -1.5159    0.7230 O.3       1 <0>         0.0000
     22 S1         -1.1069    2.5617    2.5555 S.3       1 <0>         0.0000
     23 Cl1         3.2930    0.8257   11.0744 Cl        1 <0>         0.0000
     24 H1          0.7482   -2.7923    9.0676 H         1 <0>         0.0000
     25 H2          1.3976   -2.1963    6.7602 H         1 <0>         0.0000
     26 H3          1.5773   -1.4687   10.9784 H         1 <0>         0.0000
     27 H4          3.7359    1.0897    8.2651 H         1 <0>         0.0000
     28 H5         -0.2200    3.2666    5.2693 H         1 <0>         0.0000
     29 H6          0.1147    1.6741    5.9526 H         1 <0>         0.0000
     30 H7          1.0175    2.2430    4.5321 H         1 <0>         0.0000
     31 H8         -2.6954    2.6743    5.0278 H         1 <0>         0.0000
     32 H9         -2.3988    1.0726    5.7073 H         1 <0>         0.0000
     33 H10        -3.1838    1.2376    4.1222 H         1 <0>         0.0000
     34 H11        -0.8436    0.5818    0.4085 H         1 <0>         0.0000
     35 H12        -0.3964   -0.2253    1.8961 H         1 <0>         0.0000
     36 H13         0.6415    2.4788    0.9344 H         1 <0>         0.0000
     37 H14         1.1411    1.7204    2.4415 H         1 <0>         0.0000
     38 H15         2.9484    0.3859    1.4229 H         1 <0>         0.0000
     39 H16         0.8058   -1.2336   -0.0276 H         1 <0>         0.0000
     40 H17        -0.7654    0.6023    3.8614 H         1 <0>         0.0000
     41 H18         0.8536    0.6316   -1.4231 H         1 <0>         0.0000
     42 H19         2.3513    0.0146   -1.2450 H         1 <0>         0.0000
     43 H20         1.2525   -1.0048    5.2237 H         1 <0>         0.0000
     44 H21         2.9499    0.6302    3.4697 H         1 <0>         0.0000
     45 H22         2.7041   -2.3378    0.6655 H         1 <0>         0.0000
@<TRIPOS>BOND
     1    1    2 ar
     2    1    3 ar
     3    2    5 ar
     4    3    6 ar
     5    4    5 ar
     6    4    6 ar
     7    5    7 1
     8    6   23 1
     9    7   17 am
    10    7   19 2
    11    8   13 1
    12    8   18 am
    13    8   20 2
    14    9   15 1
    15   10   15 1
    16   11   12 1
    17   11   14 1
    18   12   22 1
    19   13   14 1
    20   13   21 1
    21   14   16 1
    22   15   22 1
    23   17   18 1
    24    1   24 1
    25    2   25 1
    26    3   26 1
    27    4   27 1
    28    9   28 1
    29    9   29 1
    30    9   30 1
    31   10   31 1
    32   10   32 1
    33   10   33 1
    34   11   34 1
    35   11   35 1
    36   12   36 1
    37   12   37 1
    38   13   38 1
    39   14   39 1
    40   15   40 1
    41   16   41 1
    42   16   42 1
    43   17   43 1
    44   18   44 1
    45   21   45 1
@<TRIPOS>MOLECULE
LIGAND
   45    45     0     0     0
SMALL
NO_CHARGES

@<TRIPOS>ATOM
      1 C1          1.7569    0.2637    9.6380 C.ar      1 <0>         0.0000
      2 C2          2.1789    0.5972    8.3510 C.ar      1 <0>         0.0000
      3 C3          0.5658   -0.4388    9.8212 C.ar      1 <0>         0.0000
      4 C4          0.2188   -0.4741    7.4305 C.ar      1 <0>         0.0000
      5 C5          1.4099    0.2284    7.2473 C.ar      1 <0>         0.0000
      6 C6         -0.2032   -0.8077    8.7175 C.ar      1 <0>         0.0000
      7 C7          1.8600    0.5847    5.8768 C.2       1 <0>         0.0000
      8 C8          1.9325   -1.0133    2.6768 C.2       1 <0>         0.0000
      9 C9         -4.5409   -0.2645   -1.4345 C.3       1 <0>         0.0000
     10 C10        -4.2498    1.2273    0.5730 C.3       1 <0>         0.0000
     11 C11         0.2195    0.8307    0.9188 C.3       1 <0>         0.0000
     12 C12        -1.0001    1.1700    0.0549 C.3       1 <0>         0.0000
     13 C13         2.3649   -0.5352    1.2935 C.3       1 <0>         0.0000
     14 C14         1.1534   -0.2750    0.3710 C.3       1 <0>         0.0000
     15 C15        -3.5917    0.6563   -0.6773 C.3       1 <0>         0.0000
     16 N1          1.6681    0.0834   -0.9557 N.3       1 <0>         0.0000
     17 N2          1.4238   -0.2520    4.8674 N.am      1 <0>         0.0000
     18 N3          1.7877    0.0290    3.5734 N.am      1 <0>         0.0000
     19 O1          2.5607    1.5803    5.7128 O.2       1 <0>         0.0000
     20 O2          1.7602   -2.2018    2.9407 O.2       1 <0>         0.0000
     21 O3          3.2186   -1.5159    0.7230 O.3       1 <0>         0.0000
     22 S1         -2.0977   -0.2515   -0.2193 S.3       1 <0>         0.0000
     23 Cl1        -1.6725   -1.6750    8.9443 Cl        1 <0>         0.0000
     24 H1          2.3559    0.5507   10.4971 H         1 <0>         0.0000
     25 H2          3.1088    1.1449    8.2210 H         1 <0>         0.0000
     26 H3          0.2496   -0.6918   10.8299 H         1 <0>         0.0000
     27 H4         -0.3788   -0.7611    6.5676 H         1 <0>         0.0000
     28 H5         -4.8550   -1.0968   -0.7948 H         1 <0>         0.0000
     29 H6         -5.4473    0.2665   -1.7465 H         1 <0>         0.0000
     30 H7         -4.0696   -0.6943   -2.3258 H         1 <0>         0.0000
     31 H8         -4.5594    0.4179    1.2437 H         1 <0>         0.0000
     32 H9         -5.1470    1.8046    0.3233 H         1 <0>         0.0000
     33 H10        -3.5678    1.8766    1.1339 H         1 <0>         0.0000
     34 H11        -0.1531    0.5335    1.9082 H         1 <0>         0.0000
     35 H12         0.7975    1.7493    1.0822 H         1 <0>         0.0000
     36 H13        -0.6573    1.5138   -0.9268 H         1 <0>         0.0000
     37 H14        -1.5832    1.9849    0.4933 H         1 <0>         0.0000
     38 H15         2.9484    0.3859    1.4229 H         1 <0>         0.0000
     39 H16         0.5915   -1.2082    0.2610 H         1 <0>         0.0000
     40 H17        -3.2902    1.4801   -1.3331 H         1 <0>         0.0000
     41 H18         0.8845    0.1717   -1.5934 H         1 <0>         0.0000
     42 H19         2.2416   -0.6802   -1.2969 H         1 <0>         0.0000
     43 H20         0.8460   -1.0583    5.0782 H         1 <0>         0.0000
     44 H21         1.9478    0.9869    3.2798 H         1 <0>         0.0000
     45 H22         2.7041   -2.3378    0.6655 H         1 <0>         0.0000
@<TRIPOS>BOND
     1    1    2 ar
     2    1    3 ar
     3    2    5 ar
     4    3    6 ar
     5    4    5 ar
     6    4    6 ar
     7    5    7 1
     8    6   23 1
     9    7   17 am
    10    7   19 2
    11    8   13 1
    12    8   18 am
    13    8   20 2
    14    9   15 1
    15   10   15 1
    16   11   12 1
    17   11   14 1
    18   12   22 1
    19   13   14 1
    20   13   21 1
    21   14   16 1
    22   15   22 1
    23   17   18 1
    24    1   24 1
    25    2   25 1
    26    3   26 1
    27    4   27 1
    28    9   28 1
    29    9   29 1
    30    9   30 1
    31   10   31 1
    32   10   32 1
    33   10   33 1
    34   11   34 1
    35   11   35 1
    36   12   36 1
    37   12   37 1
    38   13   38 1
    39   14   39 1
    40   15   40 1
    41   16   41 1
    42   16   42 1
    43   17   43 1
    44   18   44 1
    45   21   45 1
@<TRIPOS>MOLECULE
LIGAND
   45    45     0     0     0
SMALL
NO_CHARGES

@<TRIPOS>ATOM
      1 C1         -0.9798   -3.8905    7.4752 C.ar      1 <0>         0.0000
      2 C2         -0.5605   -3.3589    6.2557 C.ar      1 <0>         0.0000
      3 C3         -1.7949   -5.0223    7.4994 C.ar      1 <0>         0.0000
      4 C4         -1.7714   -5.0908    5.0845 C.ar      1 <0>         0.0000
      5 C5         -0.9563   -3.9590    5.0604 C.ar      1 <0>         0.0000
      6 C6         -2.1907   -5.6224    6.3041 C.ar      1 <0>         0.0000
      7 C7         -0.5097   -3.3917    3.7617 C.2       1 <0>         0.0000
      8 C8          1.9325   -1.0133    2.6768 C.2       1 <0>         0.0000
      9 C9          0.9492    3.5395    4.1781 C.3       1 <0>         0.0000
     10 C10        -1.5671    3.4454    4.1811 C.3       1 <0>         0.0000
     11 C11         0.2195    0.8307    0.9188 C.3       1 <0>         0.0000
     12 C12         0.8590    2.2074    1.1305 C.3       1 <0>         0.0000
     13 C13         2.3649   -0.5352    1.2935 C.3       1 <0>         0.0000
     14 C14         1.1534   -0.2750    0.3710 C.3       1 <0>         0.0000
     15 C15        -0.2901    2.9668    3.5009 C.3       1 <0>         0.0000
     16 N1          1.6681    0.0834   -0.9557 N.3       1 <0>         0.0000
     17 N2          0.6851   -2.6985    3.7909 N.am      1 <0>         0.0000
     18 N3          1.1665   -2.1628    2.6216 N.am      1 <0>         0.0000
     19 O1         -1.1937   -3.5743    2.7577 O.2       1 <0>         0.0000
     20 O2          2.2299   -0.4108    3.7066 O.2       1 <0>         0.0000
     21 O3          3.2186   -1.5159    0.7230 O.3       1 <0>         0.0000
     22 S1         -0.3102    3.4478    1.7590 S.3       1 <0>         0.0000
     23 Cl1        -3.1960   -7.0191    6.3347 Cl        1 <0>         0.0000
     24 H1         -0.6713   -3.4233    8.4058 H         1 <0>         0.0000
     25 H2          0.0744   -2.4766    6.2497 H         1 <0>         0.0000
     26 H3         -2.1137   -5.4252    8.4572 H         1 <0>         0.0000
     27 H4         -2.0782   -5.5571    4.1505 H         1 <0>         0.0000
     28 H5          0.9275    4.6347    4.1481 H         1 <0>         0.0000
     29 H6          1.0005    3.2436    5.2319 H         1 <0>         0.0000
     30 H7          1.8721    3.2151    3.6839 H         1 <0>         0.0000
     31 H8         -1.6274    4.5391    4.1512 H         1 <0>         0.0000
     32 H9         -1.5938    3.1464    5.2349 H         1 <0>         0.0000
     33 H10        -2.4642    3.0528    3.6891 H         1 <0>         0.0000
     34 H11        -0.6259    0.9652    0.2307 H         1 <0>         0.0000
     35 H12        -0.2197    0.5004    1.8688 H         1 <0>         0.0000
     36 H13         1.2423    2.5738    0.1722 H         1 <0>         0.0000
     37 H14         1.7108    2.1489    1.8142 H         1 <0>         0.0000
     38 H15         2.9484    0.3859    1.4229 H         1 <0>         0.0000
     39 H16         0.5915   -1.2082    0.2610 H         1 <0>         0.0000
     40 H17        -0.2491    1.8731    3.5416 H         1 <0>         0.0000
     41 H18         0.8845    0.1717   -1.5934 H         1 <0>         0.0000
     42 H19         2.2416   -0.6802   -1.2969 H         1 <0>         0.0000
     43 H20         1.1968   -2.5873    4.6594 H         1 <0>         0.0000
     44 H21         0.9630   -2.6038    1.7309 H         1 <0>         0.0000
     45 H22         2.7041   -2.3378    0.6655 H         1 <0>         0.0000
@<TRIPOS>BOND
     1    1    2 ar
     2    1    3 ar
     3    2    5 ar
     4    3    6 ar
     5    4    5 ar
     6    4    6 ar
     7    5    7 1
     8    6   23 1
     9    7   17 am
    10    7   19 2
    11    8   13 1
    12    8   18 am
    13    8   20 2
    14    9   15 1
    15   10   15 1
    16   11   12 1
    17   11   14 1
    18   12   22 1
    19   13   14 1
    20   13   21 1
    21   14   16 1
    22   15   22 1
    23   17   18 1
    24    1   24 1
    25    2   25 1
    26    3   26 1
    27    4   27 1
    28    9   28 1
    29    9   29 1
    30    9   30 1
    31   10   31 1
    32   10   32 1
    33   10   33 1
    34   11   34 1
    35   11   35 1
    36   12   36 1
    37   12   37 1
    38   13   38 1
    39   14   39 1
    40   15   40 1
    41   16   41 1
    42   16   42 1
    43   17   43 1
    44   18   44 1
    45   21   45 1
@<TRIPOS>MOLECULE
LIGAND
   45    45     0     0     0
SMALL
NO_CHARGES

@<TRIPOS>ATOM
      1 C1         -0.9798   -3.8905    7.4752 C.ar      1 <0>         0.0000
      2 C2         -0.5605   -3.3589    6.2557 C.ar      1 <0>         0.0000
      3 C3         -1.7949   -5.0223    7.4994 C.ar      1 <0>         0.0000
      4 C4         -1.7714   -5.0908    5.0845 C.ar      1 <0>         0.0000
      5 C5         -0.9563   -3.9590    5.0604 C.ar      1 <0>         0.0000
      6 C6         -2.1907   -5.6224    6.3041 C.ar      1 <0>         0.0000
      7 C7         -0.5097   -3.3917    3.7617 C.2       1 <0>         0.0000
      8 C8          1.9325   -1.0133    2.6768 C.2       1 <0>         0.0000
      9 C9         -4.1299   -0.4675   -2.0276 C.3       1 <0>         0.0000
     10 C10        -4.2566    1.4118   -0.3565 C.3       1 <0>         0.0000
     11 C11         0.2195    0.8307    0.9188 C.3       1 <0>         0.0000
     12 C12        -1.0001    1.1700    0.0549 C.3       1 <0>         0.0000
     13 C13         2.3649   -0.5352    1.2935 C.3       1 <0>         0.0000
     14 C14         1.1534   -0.2750    0.3710 C.3       1 <0>         0.0000
     15 C15        -3.3416    0.5718   -1.2395 C.3       1 <0>         0.0000
     16 N1          1.6681    0.0834   -0.9557 N.3       1 <0>         0.0000
     17 N2          0.6851   -2.6985    3.7909 N.am      1 <0>         0.0000
     18 N3          1.1665   -2.1628    2.6216 N.am      1 <0>         0.0000
     19 O1         -1.1937   -3.5743    2.7577 O.2       1 <0>         0.0000
     20 O2          2.2299   -0.4108    3.7066 O.2       1 <0>         0.0000
     21 O3          3.2186   -1.5159    0.7230 O.3       1 <0>         0.0000
     22 S1         -2.0977   -0.2515   -0.2193 S.3       1 <0>         0.0000
     23 Cl1        -3.1960   -7.0191    6.3347 Cl        1 <0>         0.0000
     24 H1         -0.6713   -3.4233    8.4058 H         1 <0>         0.0000
     25 H2          0.0744   -2.4766    6.2497 H         1 <0>         0.0000
     26 H3         -2.1137   -5.4252    8.4572 H         1 <0>         0.0000
     27 H4         -2.0782   -5.5571    4.1505 H         1 <0>         0.0000
     28 H5         -4.6663   -1.1363   -1.3453 H         1 <0>         0.0000
     29 H6         -4.8772    0.0053   -2.6747 H         1 <0>         0.0000
     30 H7         -3.4774   -1.0886   -2.6519 H         1 <0>         0.0000
     31 H8         -4.7949    0.7719    0.3515 H         1 <0>         0.0000
     32 H9         -5.0077    1.9429   -0.9517 H         1 <0>         0.0000
     33 H10        -3.6957    2.1500    0.2280 H         1 <0>         0.0000
     34 H11        -0.1531    0.5335    1.9082 H         1 <0>         0.0000
     35 H12         0.7975    1.7493    1.0822 H         1 <0>         0.0000
     36 H13        -0.6573    1.5138   -0.9268 H         1 <0>         0.0000
     37 H14        -1.5832    1.9849    0.4933 H         1 <0>         0.0000
     38 H15         2.9484    0.3859    1.4229 H         1 <0>         0.0000
     39 H16         0.5915   -1.2082    0.2610 H         1 <0>         0.0000
     40 H17        -2.8138    1.2291   -1.9386 H         1 <0>         0.0000
     41 H18         0.8845    0.1717   -1.5934 H         1 <0>         0.0000
     42 H19         2.2416   -0.6802   -1.2969 H         1 <0>         0.0000
     43 H20         1.1968   -2.5873    4.6594 H         1 <0>         0.0000
     44 H21         0.9630   -2.6038    1.7309 H         1 <0>         0.0000
     45 H22         2.7041   -2.3378    0.6655 H         1 <0>         0.0000
@<TRIPOS>BOND
     1    1    2 ar
     2    1    3 ar
     3    2    5 ar
     4    3    6 ar
     5    4    5 ar
     6    4    6 ar
     7    5    7 1
     8    6   23 1
     9    7   17 am
    10    7   19 2
    11    8   13 1
    12    8   18 am
    13    8   20 2
    14    9   15 1
    15   10   15 1
    16   11   12 1
    17   11   14 1
    18   12   22 1
    19   13   14 1
    20   13   21 1
    21   14   16 1
    22   15   22 1
    23   17   18 1
    24    1   24 1
    25    2   25 1
    26    3   26 1
    27    4   27 1
    28    9   28 1
    29    9   29 1
    30    9   30 1
    31   10   31 1
    32   10   32 1
    33   10   33 1
    34   11   34 1
    35   11   35 1
    36   12   36 1
    37   12   37 1
    38   13   38 1
    39   14   39 1
    40   15   40 1
    41   16   41 1
    42   16   42 1
    43   17   43 1
    44   18   44 1
    45   21   45 1
@<TRIPOS>MOLECULE
LIGAND
   45    45     0     0     0
SMALL
NO_CHARGES

@<TRIPOS>ATOM
      1 C1         -0.8688   -1.7203    8.2676 C.ar      1 <0>         0.0000
      2 C2         -0.4721   -1.3756    6.9756 C.ar      1 <0>         0.0000
      3 C3         -1.6746   -0.8524    9.0047 C.ar      1 <0>         0.0000
      4 C4         -1.6869    0.7048    7.1576 C.ar      1 <0>         0.0000
      5 C5         -0.8811   -0.1631    6.4206 C.ar      1 <0>         0.0000
      6 C6         -2.0836    0.3601    8.4497 C.ar      1 <0>         0.0000
      7 C7         -0.4576    0.2036    5.0443 C.2       1 <0>         0.0000
      8 C8          1.9325   -1.0133    2.6768 C.2       1 <0>         0.0000
      9 C9         -0.7661    4.0842   -1.5067 C.3       1 <0>         0.0000
     10 C10         1.2631    3.9522   -2.9918 C.3       1 <0>         0.0000
     11 C11         1.5761    0.1765   -1.0474 C.3       1 <0>         0.0000
     12 C12         2.3784    1.4800   -1.1273 C.3       1 <0>         0.0000
     13 C13         2.3649   -0.5352    1.2935 C.3       1 <0>         0.0000
     14 C14         1.1534   -0.2750    0.3710 C.3       1 <0>         0.0000
     15 C15         0.4393    3.2484   -1.9202 C.3       1 <0>         0.0000
     16 N1          0.3597   -1.5080    0.3138 N.3       1 <0>         0.0000
     17 N2          0.7320   -0.3536    4.6161 N.am      1 <0>         0.0000
     18 N3          1.1743   -0.0714    3.3469 N.am      1 <0>         0.0000
     19 O1         -1.1696    0.9461    4.3728 O.2       1 <0>         0.0000
     20 O2          2.2555   -2.1109    3.1269 O.2       1 <0>         0.0000
     21 O3          3.2186   -1.5159    0.7230 O.3       1 <0>         0.0000
     22 S1          1.4741    2.9151   -0.4766 S.3       1 <0>         0.0000
     23 Cl1        -3.0783    1.4303    9.3596 Cl        1 <0>         0.0000
     24 H1         -0.5505   -2.6646    8.6994 H         1 <0>         0.0000
     25 H2          0.1559   -2.0601    6.4111 H         1 <0>         0.0000
     26 H3         -1.9758   -1.1345   10.0103 H         1 <0>         0.0000
     27 H4         -2.0049    1.6499    6.7219 H         1 <0>         0.0000
     28 H5         -0.4402    5.0542   -1.1149 H         1 <0>         0.0000
     29 H6         -1.4254    4.2821   -2.3592 H         1 <0>         0.0000
     30 H7         -1.3544    3.5937   -0.7229 H         1 <0>         0.0000
     31 H8          1.6202    4.9203   -2.6228 H         1 <0>         0.0000
     32 H9          0.6667    4.1459   -3.8903 H         1 <0>         0.0000
     33 H10         2.1426    3.3661   -3.2821 H         1 <0>         0.0000
     34 H11         2.1843   -0.6108   -1.5125 H         1 <0>         0.0000
     35 H12         0.6847    0.2765   -1.6798 H         1 <0>         0.0000
     36 H13         2.6151    1.6893   -2.1758 H         1 <0>         0.0000
     37 H14         3.3304    1.3937   -0.5957 H         1 <0>         0.0000
     38 H15         2.9484    0.3859    1.4229 H         1 <0>         0.0000
     39 H16         0.5249    0.4957    0.8291 H         1 <0>         0.0000
     40 H17         0.0926    2.2847   -2.3082 H         1 <0>         0.0000
     41 H18        -0.4842   -1.3249   -0.2178 H         1 <0>         0.0000
     42 H19         0.0690   -1.7492    1.2550 H         1 <0>         0.0000
     43 H20         1.2684   -0.9594    5.2274 H         1 <0>         0.0000
     44 H21         0.9480    0.8148    2.9078 H         1 <0>         0.0000
     45 H22         2.7041   -2.3378    0.6655 H         1 <0>         0.0000
@<TRIPOS>BOND
     1    1    2 ar
     2    1    3 ar
     3    2    5 ar
     4    3    6 ar
     5    4    5 ar
     6    4    6 ar
     7    5    7 1
     8    6   23 1
     9    7   17 am
    10    7   19 2
    11    8   13 1
    12    8   18 am
    13    8   20 2
    14    9   15 1
    15   10   15 1
    16   11   12 1
    17   11   14 1
    18   12   22 1
    19   13   14 1
    20   13   21 1
    21   14   16 1
    22   15   22 1
    23   17   18 1
    24    1   24 1
    25    2   25 1
    26    3   26 1
    27    4   27 1
    28    9   28 1
    29    9   29 1
    30    9   30 1
    31   10   31 1
    32   10   32 1
    33   10   33 1
    34   11   34 1
    35   11   35 1
    36   12   36 1
    37   12   37 1
    38   13   38 1
    39   14   39 1
    40   15   40 1
    41   16   41 1
    42   16   42 1
    43   17   43 1
    44   18   44 1
    45   21   45 1
@<TRIPOS>MOLECULE
LIGAND
   45    45     0     0     0
SMALL
NO_CHARGES

@<TRIPOS>ATOM
      1 C1          1.4022   -1.9431    8.8928 C.ar      1 <0>         0.0000
      2 C2          1.7709   -1.6033    7.5913 C.ar      1 <0>         0.0000
      3 C3          1.8731   -1.1920    9.9698 C.ar      1 <0>         0.0000
      4 C4          3.0815    0.2388    8.4435 C.ar      1 <0>         0.0000
      5 C5          2.6105   -0.5124    7.3666 C.ar      1 <0>         0.0000
      6 C6          2.7127   -0.1010    9.7451 C.ar      1 <0>         0.0000
      7 C7          3.0033   -0.1514    5.9797 C.2       1 <0>         0.0000
      8 C8          1.9325   -1.0133    2.6768 C.2       1 <0>         0.0000
      9 C9         -3.5032    1.0894   -2.1358 C.3       1 <0>         0.0000
     10 C10        -4.8182   -0.2133   -0.4286 C.3       1 <0>         0.0000
     11 C11         0.2195    0.8307    0.9188 C.3       1 <0>         0.0000
     12 C12        -1.0001    1.1700    0.0549 C.3       1 <0>         0.0000
     13 C13         2.3649   -0.5352    1.2935 C.3       1 <0>         0.0000
     14 C14         1.1534   -0.2750    0.3710 C.3       1 <0>         0.0000
     15 C15        -3.5917    0.6563   -0.6773 C.3       1 <0>         0.0000
     16 N1          1.6681    0.0834   -0.9557 N.3       1 <0>         0.0000
     17 N2          2.1084   -0.5131    4.9911 N.am      1 <0>         0.0000
     18 N3          2.3999   -0.1941    3.6876 N.am      1 <0>         0.0000
     19 O1          4.0607    0.4441    5.7889 O.2       1 <0>         0.0000
     20 O2          1.2610   -2.0296    2.8442 O.2       1 <0>         0.0000
     21 O3          3.2186   -1.5159    0.7230 O.3       1 <0>         0.0000
     22 S1         -2.0977   -0.2515   -0.2193 S.3       1 <0>         0.0000
     23 Cl1         3.2930    0.8257   11.0744 Cl        1 <0>         0.0000
     24 H1          0.7482   -2.7923    9.0676 H         1 <0>         0.0000
     25 H2          1.3976   -2.1963    6.7602 H         1 <0>         0.0000
     26 H3          1.5773   -1.4687   10.9784 H         1 <0>         0.0000
     27 H4          3.7359    1.0897    8.2651 H         1 <0>         0.0000
     28 H5         -3.4475    0.2126   -2.7905 H         1 <0>         0.0000
     29 H6         -4.3868    1.6640   -2.4354 H         1 <0>         0.0000
     30 H7         -2.6138    1.7003   -2.3277 H         1 <0>         0.0000
     31 H8         -4.7827   -1.1102   -1.0571 H         1 <0>         0.0000
     32 H9         -5.7425    0.3209   -0.6752 H         1 <0>         0.0000
     33 H10        -4.8798   -0.5446    0.6143 H         1 <0>         0.0000
     34 H11        -0.1531    0.5335    1.9082 H         1 <0>         0.0000
     35 H12         0.7975    1.7493    1.0822 H         1 <0>         0.0000
     36 H13        -0.6573    1.5138   -0.9268 H         1 <0>         0.0000
     37 H14        -1.5832    1.9849    0.4933 H         1 <0>         0.0000
     38 H15         2.9484    0.3859    1.4229 H         1 <0>         0.0000
     39 H16         0.5915   -1.2082    0.2610 H         1 <0>         0.0000
     40 H17        -3.6464    1.5459   -0.0407 H         1 <0>         0.0000
     41 H18         0.8845    0.1717   -1.5934 H         1 <0>         0.0000
     42 H19         2.2416   -0.6802   -1.2969 H         1 <0>         0.0000
     43 H20         1.2525   -1.0048    5.2237 H         1 <0>         0.0000
     44 H21         2.9499    0.6302    3.4697 H         1 <0>         0.0000
     45 H22         2.7041   -2.3378    0.6655 H         1 <0>         0.0000
@<TRIPOS>BOND
     1    1    2 ar
     2    1    3 ar
     3    2    5 ar
     4    3    6 ar
     5    4    5 ar
     6    4    6 ar
     7    5    7 1
     8    6   23 1
     9    7   17 am
    10    7   19 2
    11    8   13 1
    12    8   18 am
    13    8   20 2
    14    9   15 1
    15   10   15 1
    16   11   12 1
    17   11   14 1
    18   12   22 1
    19   13   14 1
    20   13   21 1
    21   14   16 1
    22   15   22 1
    23   17   18 1
    24    1   24 1
    25    2   25 1
    26    3   26 1
    27    4   27 1
    28    9   28 1
    29    9   29 1
    30    9   30 1
    31   10   31 1
    32   10   32 1
    33   10   33 1
    34   11   34 1
    35   11   35 1
    36   12   36 1
    37   12   37 1
    38   13   38 1
    39   14   39 1
    40   15   40 1
    41   16   41 1
    42   16   42 1
    43   17   43 1
    44   18   44 1
    45   21   45 1
@<TRIPOS>MOLECULE
LIGAND
   45    45     0     0     0
SMALL
NO_CHARGES

@<TRIPOS>ATOM
      1 C1         -0.5558   -3.8525    7.6500 C.ar      1 <0>         0.0000
      2 C2         -0.0131   -3.3653    6.4611 C.ar      1 <0>         0.0000
      3 C3         -0.2084   -5.1243    8.1058 C.ar      1 <0>         0.0000
      4 C4          1.2244   -5.4217    6.1834 C.ar      1 <0>         0.0000
      5 C5          0.8770   -4.1499    5.7277 C.ar      1 <0>         0.0000
      6 C6          0.6817   -5.9089    7.3724 C.ar      1 <0>         0.0000
      7 C7          1.4542   -3.6304    4.4609 C.2       1 <0>         0.0000
      8 C8          1.9325   -1.0133    2.6768 C.2       1 <0>         0.0000
      9 C9          0.9492    3.5395    4.1781 C.3       1 <0>         0.0000
     10 C10        -1.5671    3.4454    4.1811 C.3       1 <0>         0.0000
     11 C11         0.2195    0.8307    0.9188 C.3       1 <0>         0.0000
     12 C12         0.8590    2.2074    1.1305 C.3       1 <0>         0.0000
     13 C13         2.3649   -0.5352    1.2935 C.3       1 <0>         0.0000
     14 C14         1.1534   -0.2750    0.3710 C.3       1 <0>         0.0000
     15 C15        -0.2901    2.9668    3.5009 C.3       1 <0>         0.0000
     16 N1          1.6681    0.0834   -0.9557 N.3       1 <0>         0.0000
     17 N2          0.6851   -2.6985    3.7909 N.am      1 <0>         0.0000
     18 N3          1.1665   -2.1628    2.6216 N.am      1 <0>         0.0000
     19 O1          2.5559   -4.0300    4.0926 O.2       1 <0>         0.0000
     20 O2          2.2299   -0.4108    3.7066 O.2       1 <0>         0.0000
     21 O3          3.2186   -1.5159    0.7230 O.3       1 <0>         0.0000
     22 S1         -0.3102    3.4478    1.7590 S.3       1 <0>         0.0000
     23 Cl1         1.1103   -7.4778    7.9355 Cl        1 <0>         0.0000
     24 H1         -1.2485   -3.2413    8.2210 H         1 <0>         0.0000
     25 H2         -0.2915   -2.3728    6.1162 H         1 <0>         0.0000
     26 H3         -0.6392   -5.4905    9.0340 H         1 <0>         0.0000
     27 H4          1.9195   -6.0313    5.6095 H         1 <0>         0.0000
     28 H5          0.9275    4.6347    4.1481 H         1 <0>         0.0000
     29 H6          1.0005    3.2436    5.2319 H         1 <0>         0.0000
     30 H7          1.8721    3.2151    3.6839 H         1 <0>         0.0000
     31 H8         -1.6274    4.5391    4.1512 H         1 <0>         0.0000
     32 H9         -1.5938    3.1464    5.2349 H         1 <0>         0.0000
     33 H10        -2.4642    3.0528    3.6891 H         1 <0>         0.0000
     34 H11        -0.6259    0.9652    0.2307 H         1 <0>         0.0000
     35 H12        -0.2197    0.5004    1.8688 H         1 <0>         0.0000
     36 H13         1.2423    2.5738    0.1722 H         1 <0>         0.0000
     37 H14         1.7108    2.1489    1.8142 H         1 <0>         0.0000
     38 H15         2.9484    0.3859    1.4229 H         1 <0>         0.0000
     39 H16         0.5915   -1.2082    0.2610 H         1 <0>         0.0000
     40 H17        -0.2491    1.8731    3.5416 H         1 <0>         0.0000
     41 H18         0.8845    0.1717   -1.5934 H         1 <0>         0.0000
     42 H19         2.2416   -0.6802   -1.2969 H         1 <0>         0.0000
     43 H20        -0.2179   -2.4154    4.1557 H         1 <0>         0.0000
     44 H21         0.9630   -2.6038    1.7309 H         1 <0>         0.0000
     45 H22         2.7041   -2.3378    0.6655 H         1 <0>         0.0000
@<TRIPOS>BOND
     1    1    2 ar
     2    1    3 ar
     3    2    5 ar
     4    3    6 ar
     5    4    5 ar
     6    4    6 ar
     7    5    7 1
     8    6   23 1
     9    7   17 am
    10    7   19 2
    11    8   13 1
    12    8   18 am
    13    8   20 2
    14    9   15 1
    15   10   15 1
    16   11   12 1
    17   11   14 1
    18   12   22 1
    19   13   14 1
    20   13   21 1
    21   14   16 1
    22   15   22 1
    23   17   18 1
    24    1   24 1
    25    2   25 1
    26    3   26 1
    27    4   27 1
    28    9   28 1
    29    9   29 1
    30    9   30 1
    31   10   31 1
    32   10   32 1
    33   10   33 1
    34   11   34 1
    35   11   35 1
    36   12   36 1
    37   12   37 1
    38   13   38 1
    39   14   39 1
    40   15   40 1
    41   16   41 1
    42   16   42 1
    43   17   43 1
    44   18   44 1
    45   21   45 1
@<TRIPOS>MOLECULE
LIGAND
   45    45     0     0     0
SMALL
NO_CHARGES

@<TRIPOS>ATOM
      1 C1          0.8357    0.1354    9.3996 C.ar      1 <0>         0.0000
      2 C2          1.3551    0.4336    8.1400 C.ar      1 <0>         0.0000
      3 C3         -0.0643   -0.9196    9.5510 C.ar      1 <0>         0.0000
      4 C4          0.0746   -1.3780    7.1830 C.ar      1 <0>         0.0000
      5 C5          0.9746   -0.3231    7.0316 C.ar      1 <0>         0.0000
      6 C6         -0.4448   -1.6762    8.4427 C.ar      1 <0>         0.0000
      7 C7          1.5280   -0.0043    5.6900 C.2       1 <0>         0.0000
      8 C8          1.9325   -1.0133    2.6768 C.2       1 <0>         0.0000
      9 C9         -2.8125    0.5348   -2.7511 C.3       1 <0>         0.0000
     10 C10        -2.5812    3.0315   -2.9817 C.3       1 <0>         0.0000
     11 C11         1.5761    0.1765   -1.0474 C.3       1 <0>         0.0000
     12 C12         0.4360    0.4372   -2.0380 C.3       1 <0>         0.0000
     13 C13         2.3649   -0.5352    1.2935 C.3       1 <0>         0.0000
     14 C14         1.1534   -0.2750    0.3710 C.3       1 <0>         0.0000
     15 C15        -1.8423    1.7019   -2.8899 C.3       1 <0>         0.0000
     16 N1          0.3597   -1.5080    0.3138 N.3       1 <0>         0.0000
     17 N2          0.7320   -0.3536    4.6161 N.am      1 <0>         0.0000
     18 N3          1.1743   -0.0714    3.3469 N.am      1 <0>         0.0000
     19 O1          2.6215    0.5492    5.6056 O.2       1 <0>         0.0000
     20 O2          2.2555   -2.1109    3.1269 O.2       1 <0>         0.0000
     21 O3          3.2186   -1.5159    0.7230 O.3       1 <0>         0.0000
     22 S1         -0.7139    1.7277   -1.4786 S.3       1 <0>         0.0000
     23 Cl1        -1.5550   -2.9781    8.6304 Cl        1 <0>         0.0000
     24 H1          1.1323    0.7244   10.2624 H         1 <0>         0.0000
     25 H2          2.0556    1.2581    8.0346 H         1 <0>         0.0000
     26 H3         -0.4608   -1.1402   10.5387 H         1 <0>         0.0000
     27 H4         -0.2200   -1.9669    6.3167 H         1 <0>         0.0000
     28 H5         -3.4266    0.6553   -1.8516 H         1 <0>         0.0000
     29 H6         -3.4950    0.4797   -3.6065 H         1 <0>         0.0000
     30 H7         -2.2889   -0.4243   -2.6659 H         1 <0>         0.0000
     31 H8         -3.1918    3.1904   -2.0858 H         1 <0>         0.0000
     32 H9         -3.2564    3.0539   -3.8443 H         1 <0>         0.0000
     33 H10        -1.8903    3.8784   -3.0633 H         1 <0>         0.0000
     34 H11         2.1631    1.1018   -0.9736 H         1 <0>         0.0000
     35 H12         2.2520   -0.5707   -1.4824 H         1 <0>         0.0000
     36 H13        -0.1421   -0.4839   -2.1668 H         1 <0>         0.0000
     37 H14         0.8216    0.7132   -3.0237 H         1 <0>         0.0000
     38 H15         2.9484    0.3859    1.4229 H         1 <0>         0.0000
     39 H16         0.5249    0.4957    0.8291 H         1 <0>         0.0000
     40 H17        -1.2390    1.5625   -3.7933 H         1 <0>         0.0000
     41 H18        -0.4842   -1.3249   -0.2178 H         1 <0>         0.0000
     42 H19         0.0690   -1.7492    1.2550 H         1 <0>         0.0000
     43 H20        -0.1619   -0.8097    4.7623 H         1 <0>         0.0000
     44 H21         0.9480    0.8148    2.9078 H         1 <0>         0.0000
     45 H22         2.7041   -2.3378    0.6655 H         1 <0>         0.0000
@<TRIPOS>BOND
     1    1    2 ar
     2    1    3 ar
     3    2    5 ar
     4    3    6 ar
     5    4    5 ar
     6    4    6 ar
     7    5    7 1
     8    6   23 1
     9    7   17 am
    10    7   19 2
    11    8   13 1
    12    8   18 am
    13    8   20 2
    14    9   15 1
    15   10   15 1
    16   11   12 1
    17   11   14 1
    18   12   22 1
    19   13   14 1
    20   13   21 1
    21   14   16 1
    22   15   22 1
    23   17   18 1
    24    1   24 1
    25    2   25 1
    26    3   26 1
    27    4   27 1
    28    9   28 1
    29    9   29 1
    30    9   30 1
    31   10   31 1
    32   10   32 1
    33   10   33 1
    34   11   34 1
    35   11   35 1
    36   12   36 1
    37   12   37 1
    38   13   38 1
    39   14   39 1
    40   15   40 1
    41   16   41 1
    42   16   42 1
    43   17   43 1
    44   18   44 1
    45   21   45 1
@<TRIPOS>MOLECULE
LIGAND
   45    45     0     0     0
SMALL
NO_CHARGES

@<TRIPOS>ATOM
      1 C1         -0.4349   -4.8185    7.2572 C.ar      1 <0>         0.0000
      2 C2         -0.0165   -4.2865    6.0377 C.ar      1 <0>         0.0000
      3 C3         -1.7933   -5.0232    7.4996 C.ar      1 <0>         0.0000
      4 C4         -2.3147   -4.1637    5.3027 C.ar      1 <0>         0.0000
      5 C5         -0.9563   -3.9590    5.0604 C.ar      1 <0>         0.0000
      6 C6         -2.7331   -4.6958    6.5223 C.ar      1 <0>         0.0000
      7 C7         -0.5097   -3.3917    3.7617 C.2       1 <0>         0.0000
      8 C8          1.9325   -1.0133    2.6768 C.2       1 <0>         0.0000
      9 C9          0.9492    3.5395    4.1781 C.3       1 <0>         0.0000
     10 C10        -1.5671    3.4454    4.1811 C.3       1 <0>         0.0000
     11 C11         0.2195    0.8307    0.9188 C.3       1 <0>         0.0000
     12 C12         0.8590    2.2074    1.1305 C.3       1 <0>         0.0000
     13 C13         2.3649   -0.5352    1.2935 C.3       1 <0>         0.0000
     14 C14         1.1534   -0.2750    0.3710 C.3       1 <0>         0.0000
     15 C15        -0.2901    2.9668    3.5009 C.3       1 <0>         0.0000
     16 N1          1.6681    0.0834   -0.9557 N.3       1 <0>         0.0000
     17 N2          0.6851   -2.6985    3.7909 N.am      1 <0>         0.0000
     18 N3          1.1665   -2.1628    2.6216 N.am      1 <0>         0.0000
     19 O1         -1.1937   -3.5743    2.7577 O.2       1 <0>         0.0000
     20 O2          2.2299   -0.4108    3.7066 O.2       1 <0>         0.0000
     21 O3          3.2186   -1.5159    0.7230 O.3       1 <0>         0.0000
     22 S1         -0.3102    3.4478    1.7590 S.3       1 <0>         0.0000
     23 Cl1        -4.4091   -4.9490    6.8218 Cl        1 <0>         0.0000
     24 H1          0.2970   -5.0737    8.0179 H         1 <0>         0.0000
     25 H2          1.0448   -4.1315    5.8606 H         1 <0>         0.0000
     26 H3         -2.1044   -5.4385    8.4546 H         1 <0>         0.0000
     27 H4         -3.0456   -3.9078    4.5382 H         1 <0>         0.0000
     28 H5          0.9275    4.6347    4.1481 H         1 <0>         0.0000
     29 H6          1.0005    3.2436    5.2319 H         1 <0>         0.0000
     30 H7          1.8721    3.2151    3.6839 H         1 <0>         0.0000
     31 H8         -1.6274    4.5391    4.1512 H         1 <0>         0.0000
     32 H9         -1.5938    3.1464    5.2349 H         1 <0>         0.0000
     33 H10        -2.4642    3.0528    3.6891 H         1 <0>         0.0000
     34 H11        -0.6259    0.9652    0.2307 H         1 <0>         0.0000
     35 H12        -0.2197    0.5004    1.8688 H         1 <0>         0.0000
     36 H13         1.2423    2.5738    0.1722 H         1 <0>         0.0000
     37 H14         1.7108    2.1489    1.8142 H         1 <0>         0.0000
     38 H15         2.9484    0.3859    1.4229 H         1 <0>         0.0000
     39 H16         0.5915   -1.2082    0.2610 H         1 <0>         0.0000
     40 H17        -0.2491    1.8731    3.5416 H         1 <0>         0.0000
     41 H18         0.8845    0.1717   -1.5934 H         1 <0>         0.0000
     42 H19         2.2416   -0.6802   -1.2969 H         1 <0>         0.0000
     43 H20         1.1968   -2.5873    4.6594 H         1 <0>         0.0000
     44 H21         0.9630   -2.6038    1.7309 H         1 <0>         0.0000
     45 H22         2.7041   -2.3378    0.6655 H         1 <0>         0.0000
@<TRIPOS>BOND
     1    1    2 ar
     2    1    3 ar
     3    2    5 ar
     4    3    6 ar
     5    4    5 ar
     6    4    6 ar
     7    5    7 1
     8    6   23 1
     9    7   17 am
    10    7   19 2
    11    8   13 1
    12    8   18 am
    13    8   20 2
    14    9   15 1
    15   10   15 1
    16   11   12 1
    17   11   14 1
    18   12   22 1
    19   13   14 1
    20   13   21 1
    21   14   16 1
    22   15   22 1
    23   17   18 1
    24    1   24 1
    25    2   25 1
    26    3   26 1
    27    4   27 1
    28    9   28 1
    29    9   29 1
    30    9   30 1
    31   10   31 1
    32   10   32 1
    33   10   33 1
    34   11   34 1
    35   11   35 1
    36   12   36 1
    37   12   37 1
    38   13   38 1
    39   14   39 1
    40   15   40 1
    41   16   41 1
    42   16   42 1
    43   17   43 1
    44   18   44 1
    45   21   45 1
@<TRIPOS>MOLECULE
LIGAND
   45    45     0     0     0
SMALL
NO_CHARGES

@<TRIPOS>ATOM
      1 C1          0.6850   -5.9098    7.3717 C.ar      1 <0>         0.0000
      2 C2          1.2259   -5.4217    6.1822 C.ar      1 <0>         0.0000
      3 C3         -0.2049   -5.1263    8.1065 C.ar      1 <0>         0.0000
      4 C4         -0.0128   -3.3664    6.4625 C.ar      1 <0>         0.0000
      5 C5          0.8770   -4.1499    5.7277 C.ar      1 <0>         0.0000
      6 C6         -0.5537   -3.8546    7.6520 C.ar      1 <0>         0.0000
      7 C7          1.4542   -3.6304    4.4609 C.2       1 <0>         0.0000
      8 C8          1.9325   -1.0133    2.6768 C.2       1 <0>         0.0000
      9 C9         -2.8396    0.6809   -2.6742 C.3       1 <0>         0.0000
     10 C10        -4.6560   -0.1960   -1.1670 C.3       1 <0>         0.0000
     11 C11         0.2195    0.8307    0.9188 C.3       1 <0>         0.0000
     12 C12        -1.0001    1.1700    0.0549 C.3       1 <0>         0.0000
     13 C13         2.3649   -0.5352    1.2935 C.3       1 <0>         0.0000
     14 C14         1.1534   -0.2750    0.3710 C.3       1 <0>         0.0000
     15 C15        -3.3416    0.5718   -1.2395 C.3       1 <0>         0.0000
     16 N1          1.6681    0.0834   -0.9557 N.3       1 <0>         0.0000
     17 N2          0.6851   -2.6985    3.7909 N.am      1 <0>         0.0000
     18 N3          1.1665   -2.1628    2.6216 N.am      1 <0>         0.0000
     19 O1          2.5559   -4.0300    4.0926 O.2       1 <0>         0.0000
     20 O2          2.2299   -0.4108    3.7066 O.2       1 <0>         0.0000
     21 O3          3.2186   -1.5159    0.7230 O.3       1 <0>         0.0000
     22 S1         -2.0977   -0.2515   -0.2193 S.3       1 <0>         0.0000
     23 Cl1        -1.6522   -2.8885    8.5590 Cl        1 <0>         0.0000
     24 H1          0.9565   -6.9001    7.7252 H         1 <0>         0.0000
     25 H2          1.9183   -6.0415    5.6185 H         1 <0>         0.0000
     26 H3         -0.6183   -5.5200    9.0315 H         1 <0>         0.0000
     27 H4         -0.2836   -2.3748    6.1052 H         1 <0>         0.0000
     28 H5         -2.6847   -0.3167   -3.1002 H         1 <0>         0.0000
     29 H6         -3.5648    1.1984   -3.3121 H         1 <0>         0.0000
     30 H7         -1.8850    1.2160   -2.7338 H         1 <0>         0.0000
     31 H8         -4.5291   -1.2071   -1.5698 H         1 <0>         0.0000
     32 H9         -5.4375    0.2943   -1.7580 H         1 <0>         0.0000
     33 H10        -5.0153   -0.2952   -0.1363 H         1 <0>         0.0000
     34 H11        -0.1531    0.5335    1.9082 H         1 <0>         0.0000
     35 H12         0.7975    1.7493    1.0822 H         1 <0>         0.0000
     36 H13        -0.6573    1.5138   -0.9268 H         1 <0>         0.0000
     37 H14        -1.5832    1.9849    0.4933 H         1 <0>         0.0000
     38 H15         2.9484    0.3859    1.4229 H         1 <0>         0.0000
     39 H16         0.5915   -1.2082    0.2610 H         1 <0>         0.0000
     40 H17        -3.4899    1.5778   -0.8328 H         1 <0>         0.0000
     41 H18         0.8845    0.1717   -1.5934 H         1 <0>         0.0000
     42 H19         2.2416   -0.6802   -1.2969 H         1 <0>         0.0000
     43 H20        -0.2179   -2.4154    4.1557 H         1 <0>         0.0000
     44 H21         0.9630   -2.6038    1.7309 H         1 <0>         0.0000
     45 H22         2.7041   -2.3378    0.6655 H         1 <0>         0.0000
@<TRIPOS>BOND
     1    1    2 ar
     2    1    3 ar
     3    2    5 ar
     4    3    6 ar
     5    4    5 ar
     6    4    6 ar
     7    5    7 1
     8    6   23 1
     9    7   17 am
    10    7   19 2
    11    8   13 1
    12    8   18 am
    13    8   20 2
    14    9   15 1
    15   10   15 1
    16   11   12 1
    17   11   14 1
    18   12   22 1
    19   13   14 1
    20   13   21 1
    21   14   16 1
    22   15   22 1
    23   17   18 1
    24    1   24 1
    25    2   25 1
    26    3   26 1
    27    4   27 1
    28    9   28 1
    29    9   29 1
    30    9   30 1
    31   10   31 1
    32   10   32 1
    33   10   33 1
    34   11   34 1
    35   11   35 1
    36   12   36 1
    37   12   37 1
    38   13   38 1
    39   14   39 1
    40   15   40 1
    41   16   41 1
    42   16   42 1
    43   17   43 1
    44   18   44 1
    45   21   45 1
@<TRIPOS>MOLECULE
LIGAND
   45    45     0     0     0
SMALL
NO_CHARGES

@<TRIPOS>ATOM
      1 C1          2.3084   -2.0825    9.0344 C.ar      1 <0>         0.0000
      2 C2          2.5351   -1.6185    7.7387 C.ar      1 <0>         0.0000
      3 C3          1.1971   -1.6371    9.7503 C.ar      1 <0>         0.0000
      4 C4          0.5395   -0.2636    7.8747 C.ar      1 <0>         0.0000
      5 C5          1.6507   -0.7090    7.1588 C.ar      1 <0>         0.0000
      6 C6          0.3127   -0.7276    9.1704 C.ar      1 <0>         0.0000
      7 C7          1.8934   -0.2148    5.7787 C.2       1 <0>         0.0000
      8 C8          1.9325   -1.0133    2.6768 C.2       1 <0>         0.0000
      9 C9         -2.4695    4.5098    0.4722 C.3       1 <0>         0.0000
     10 C10        -0.2177    4.7761   -0.6229 C.3       1 <0>         0.0000
     11 C11         0.2195    0.8307    0.9188 C.3       1 <0>         0.0000
     12 C12         0.8590    2.2074    1.1305 C.3       1 <0>         0.0000
     13 C13         2.3649   -0.5352    1.2935 C.3       1 <0>         0.0000
     14 C14         1.1534   -0.2750    0.3710 C.3       1 <0>         0.0000
     15 C15        -1.1189    3.8600    0.1963 C.3       1 <0>         0.0000
     16 N1          1.6681    0.0834   -0.9557 N.3       1 <0>         0.0000
     17 N2          2.6023   -1.0670    4.9540 N.am      1 <0>         0.0000
     18 N3          2.8469   -0.6810    3.6590 N.am      1 <0>         0.0000
     19 O1          1.4534    0.8829    5.4461 O.2       1 <0>         0.0000
     20 O2          0.8915   -1.6405    2.8632 O.2       1 <0>         0.0000
     21 O3          3.2186   -1.5159    0.7230 O.3       1 <0>         0.0000
     22 S1         -0.3102    3.4478    1.7590 S.3       1 <0>         0.0000
     23 Cl1        -1.0586   -0.1788   10.0541 Cl        1 <0>         0.0000
     24 H1          2.9969   -2.7909    9.4856 H         1 <0>         0.0000
     25 H2          3.4046   -1.9729    7.1910 H         1 <0>         0.0000
     26 H3          1.0333   -2.0074   10.7590 H         1 <0>         0.0000
     27 H4         -0.1491    0.4455    7.4196 H         1 <0>         0.0000
     28 H5         -2.3352    5.4486    1.0211 H         1 <0>         0.0000
     29 H6         -2.9944    4.7495   -0.4593 H         1 <0>         0.0000
     30 H7         -3.1176    3.8651    1.0767 H         1 <0>         0.0000
     31 H8         -0.0488    5.7190   -0.0908 H         1 <0>         0.0000
     32 H9         -0.6728    5.0239   -1.5883 H         1 <0>         0.0000
     33 H10         0.7629    4.3240   -0.8105 H         1 <0>         0.0000
     34 H11        -0.6259    0.9652    0.2307 H         1 <0>         0.0000
     35 H12        -0.2197    0.5004    1.8688 H         1 <0>         0.0000
     36 H13         1.2423    2.5738    0.1722 H         1 <0>         0.0000
     37 H14         1.7108    2.1489    1.8142 H         1 <0>         0.0000
     38 H15         2.9484    0.3859    1.4229 H         1 <0>         0.0000
     39 H16         0.5915   -1.2082    0.2610 H         1 <0>         0.0000
     40 H17        -1.2750    2.9249   -0.3521 H         1 <0>         0.0000
     41 H18         0.8845    0.1717   -1.5934 H         1 <0>         0.0000
     42 H19         2.2416   -0.6802   -1.2969 H         1 <0>         0.0000
     43 H20         2.9356   -1.9607    5.2985 H         1 <0>         0.0000
     44 H21         3.6858   -0.1599    3.4266 H         1 <0>         0.0000
     45 H22         2.7041   -2.3378    0.6655 H         1 <0>         0.0000
@<TRIPOS>BOND
     1    1    2 ar
     2    1    3 ar
     3    2    5 ar
     4    3    6 ar
     5    4    5 ar
     6    4    6 ar
     7    5    7 1
     8    6   23 1
     9    7   17 am
    10    7   19 2
    11    8   13 1
    12    8   18 am
    13    8   20 2
    14    9   15 1
    15   10   15 1
    16   11   12 1
    17   11   14 1
    18   12   22 1
    19   13   14 1
    20   13   21 1
    21   14   16 1
    22   15   22 1
    23   17   18 1
    24    1   24 1
    25    2   25 1
    26    3   26 1
    27    4   27 1
    28    9   28 1
    29    9   29 1
    30    9   30 1
    31   10   31 1
    32   10   32 1
    33   10   33 1
    34   11   34 1
    35   11   35 1
    36   12   36 1
    37   12   37 1
    38   13   38 1
    39   14   39 1
    40   15   40 1
    41   16   41 1
    42   16   42 1
    43   17   43 1
    44   18   44 1
    45   21   45 1
@<TRIPOS>MOLECULE
LIGAND
   45    45     0     0     0
SMALL
NO_CHARGES

@<TRIPOS>ATOM
      1 C1          0.8357    0.1354    9.3996 C.ar      1 <0>         0.0000
      2 C2          1.3551    0.4336    8.1400 C.ar      1 <0>         0.0000
      3 C3         -0.0643   -0.9196    9.5510 C.ar      1 <0>         0.0000
      4 C4          0.0746   -1.3780    7.1830 C.ar      1 <0>         0.0000
      5 C5          0.9746   -0.3231    7.0316 C.ar      1 <0>         0.0000
      6 C6         -0.4448   -1.6762    8.4427 C.ar      1 <0>         0.0000
      7 C7          1.5280   -0.0043    5.6900 C.2       1 <0>         0.0000
      8 C8          1.9325   -1.0133    2.6768 C.2       1 <0>         0.0000
      9 C9          0.1128    3.4388   -3.4370 C.3       1 <0>         0.0000
     10 C10        -0.1648    4.3761   -1.1165 C.3       1 <0>         0.0000
     11 C11         1.5761    0.1765   -1.0474 C.3       1 <0>         0.0000
     12 C12         0.4360    0.4372   -2.0380 C.3       1 <0>         0.0000
     13 C13         2.3649   -0.5352    1.2935 C.3       1 <0>         0.0000
     14 C14         1.1534   -0.2750    0.3710 C.3       1 <0>         0.0000
     15 C15         0.2674    3.1720   -1.9445 C.3       1 <0>         0.0000
     16 N1          0.3597   -1.5080    0.3138 N.3       1 <0>         0.0000
     17 N2          0.7320   -0.3536    4.6161 N.am      1 <0>         0.0000
     18 N3          1.1743   -0.0714    3.3469 N.am      1 <0>         0.0000
     19 O1          2.6215    0.5492    5.6056 O.2       1 <0>         0.0000
     20 O2          2.2555   -2.1109    3.1269 O.2       1 <0>         0.0000
     21 O3          3.2186   -1.5159    0.7230 O.3       1 <0>         0.0000
     22 S1         -0.7139    1.7277   -1.4786 S.3       1 <0>         0.0000
     23 Cl1        -1.5550   -2.9781    8.6304 Cl        1 <0>         0.0000
     24 H1          1.1323    0.7244   10.2624 H         1 <0>         0.0000
     25 H2          2.0556    1.2581    8.0346 H         1 <0>         0.0000
     26 H3         -0.4608   -1.1402   10.5387 H         1 <0>         0.0000
     27 H4         -0.2200   -1.9669    6.3167 H         1 <0>         0.0000
     28 H5         -0.9313    3.6698   -3.6761 H         1 <0>         0.0000
     29 H6          0.7168    4.2965   -3.7534 H         1 <0>         0.0000
     30 H7          0.4041    2.5712   -4.0399 H         1 <0>         0.0000
     31 H8         -1.2132    4.6215   -1.3199 H         1 <0>         0.0000
     32 H9          0.4307    5.2627   -1.3609 H         1 <0>         0.0000
     33 H10        -0.0742    4.1863   -0.0408 H         1 <0>         0.0000
     34 H11         2.1631    1.1018   -0.9736 H         1 <0>         0.0000
     35 H12         2.2520   -0.5707   -1.4824 H         1 <0>         0.0000
     36 H13        -0.1421   -0.4839   -2.1668 H         1 <0>         0.0000
     37 H14         0.8216    0.7132   -3.0237 H         1 <0>         0.0000
     38 H15         2.9484    0.3859    1.4229 H         1 <0>         0.0000
     39 H16         0.5249    0.4957    0.8291 H         1 <0>         0.0000
     40 H17         1.3162    2.9436   -1.7268 H         1 <0>         0.0000
     41 H18        -0.4842   -1.3249   -0.2178 H         1 <0>         0.0000
     42 H19         0.0690   -1.7492    1.2550 H         1 <0>         0.0000
     43 H20        -0.1619   -0.8097    4.7623 H         1 <0>         0.0000
     44 H21         0.9480    0.8148    2.9078 H         1 <0>         0.0000
     45 H22         2.7041   -2.3378    0.6655 H         1 <0>         0.0000
@<TRIPOS>BOND
     1    1    2 ar
     2    1    3 ar
     3    2    5 ar
     4    3    6 ar
     5    4    5 ar
     6    4    6 ar
     7    5    7 1
     8    6   23 1
     9    7   17 am
    10    7   19 2
    11    8   13 1
    12    8   18 am
    13    8   20 2
    14    9   15 1
    15   10   15 1
    16   11   12 1
    17   11   14 1
    18   12   22 1
    19   13   14 1
    20   13   21 1
    21   14   16 1
    22   15   22 1
    23   17   18 1
    24    1   24 1
    25    2   25 1
    26    3   26 1
    27    4   27 1
    28    9   28 1
    29    9   29 1
    30    9   30 1
    31   10   31 1
    32   10   32 1
    33   10   33 1
    34   11   34 1
    35   11   35 1
    36   12   36 1
    37   12   37 1
    38   13   38 1
    39   14   39 1
    40   15   40 1
    41   16   41 1
    42   16   42 1
    43   17   43 1
    44   18   44 1
    45   21   45 1
@<TRIPOS>MOLECULE
LIGAND
   45    45     0     0     0
SMALL
NO_CHARGES

@<TRIPOS>ATOM
      1 C1          0.9205   -1.8510    8.8077 C.ar      1 <0>         0.0000
      2 C2          1.2701   -1.5831    7.4842 C.ar      1 <0>         0.0000
      3 C3          1.9107   -2.1474    9.7444 C.ar      1 <0>         0.0000
      4 C4          3.6002   -1.9080    8.0341 C.ar      1 <0>         0.0000
      5 C5          2.6100   -1.6117    7.0974 C.ar      1 <0>         0.0000
      6 C6          3.2505   -2.1759    9.3576 C.ar      1 <0>         0.0000
      7 C7          2.9815   -1.3268    5.6872 C.2       1 <0>         0.0000
      8 C8          1.9325   -1.0133    2.6768 C.2       1 <0>         0.0000
      9 C9          1.4564    5.4762    1.2996 C.3       1 <0>         0.0000
     10 C10         0.2261    5.4824    3.4965 C.3       1 <0>         0.0000
     11 C11         0.2195    0.8307    0.9188 C.3       1 <0>         0.0000
     12 C12         0.8590    2.2074    1.1305 C.3       1 <0>         0.0000
     13 C13         2.3649   -0.5352    1.2935 C.3       1 <0>         0.0000
     14 C14         1.1534   -0.2750    0.3710 C.3       1 <0>         0.0000
     15 C15         0.8895    4.6225    2.4275 C.3       1 <0>         0.0000
     16 N1          1.6681    0.0834   -0.9557 N.3       1 <0>         0.0000
     17 N2          2.1084   -0.5131    4.9911 N.am      1 <0>         0.0000
     18 N3          2.3999   -0.1941    3.6876 N.am      1 <0>         0.0000
     19 O1          4.0191   -1.8000    5.2304 O.2       1 <0>         0.0000
     20 O2          1.2610   -2.0296    2.8442 O.2       1 <0>         0.0000
     21 O3          3.2186   -1.5159    0.7230 O.3       1 <0>         0.0000
     22 S1         -0.3102    3.4478    1.7590 S.3       1 <0>         0.0000
     23 Cl1         4.4719   -2.5412   10.5140 Cl        1 <0>         0.0000
     24 H1         -0.1227   -1.8284    9.1087 H         1 <0>         0.0000
     25 H2          0.4895   -1.3536    6.7634 H         1 <0>         0.0000
     26 H3          1.6231   -2.3540   10.7720 H         1 <0>         0.0000
     27 H4          4.6447   -1.9291    7.7296 H         1 <0>         0.0000
     28 H5          0.6599    6.0638    0.8297 H         1 <0>         0.0000
     29 H6          2.2059    6.1832    1.6727 H         1 <0>         0.0000
     30 H7          1.9195    4.8646    0.5169 H         1 <0>         0.0000
     31 H8         -0.5894    6.0701    3.0604 H         1 <0>         0.0000
     32 H9          0.9374    6.1894    3.9378 H         1 <0>         0.0000
     33 H10        -0.2008    4.8752    4.3030 H         1 <0>         0.0000
     34 H11        -0.6259    0.9652    0.2307 H         1 <0>         0.0000
     35 H12        -0.2197    0.5004    1.8688 H         1 <0>         0.0000
     36 H13         1.2423    2.5738    0.1722 H         1 <0>         0.0000
     37 H14         1.7108    2.1489    1.8142 H         1 <0>         0.0000
     38 H15         2.9484    0.3859    1.4229 H         1 <0>         0.0000
     39 H16         0.5915   -1.2082    0.2610 H         1 <0>         0.0000
     40 H17         1.7002    4.0441    2.8832 H         1 <0>         0.0000
     41 H18         0.8845    0.1717   -1.5934 H         1 <0>         0.0000
     42 H19         2.2416   -0.6802   -1.2969 H         1 <0>         0.0000
     43 H20         1.2682   -0.1582    5.4344 H         1 <0>         0.0000
     44 H21         2.9499    0.6302    3.4697 H         1 <0>         0.0000
     45 H22         2.7041   -2.3378    0.6655 H         1 <0>         0.0000
@<TRIPOS>BOND
     1    1    2 ar
     2    1    3 ar
     3    2    5 ar
     4    3    6 ar
     5    4    5 ar
     6    4    6 ar
     7    5    7 1
     8    6   23 1
     9    7   17 am
    10    7   19 2
    11    8   13 1
    12    8   18 am
    13    8   20 2
    14    9   15 1
    15   10   15 1
    16   11   12 1
    17   11   14 1
    18   12   22 1
    19   13   14 1
    20   13   21 1
    21   14   16 1
    22   15   22 1
    23   17   18 1
    24    1   24 1
    25    2   25 1
    26    3   26 1
    27    4   27 1
    28    9   28 1
    29    9   29 1
    30    9   30 1
    31   10   31 1
    32   10   32 1
    33   10   33 1
    34   11   34 1
    35   11   35 1
    36   12   36 1
    37   12   37 1
    38   13   38 1
    39   14   39 1
    40   15   40 1
    41   16   41 1
    42   16   42 1
    43   17   43 1
    44   18   44 1
    45   21   45 1
@<TRIPOS>MOLECULE
LIGAND
   45    45     0     0     0
SMALL
NO_CHARGES

@<TRIPOS>ATOM
      1 C1          1.3177   -0.8505    9.3642 C.ar      1 <0>         0.0000
      2 C2          1.8364   -0.5518    8.1043 C.ar      1 <0>         0.0000
      3 C3         -0.0628   -0.9206    9.5514 C.ar      1 <0>         0.0000
      4 C4         -0.4059   -0.3930    7.2188 C.ar      1 <0>         0.0000
      5 C5          0.9746   -0.3231    7.0316 C.ar      1 <0>         0.0000
      6 C6         -0.9246   -0.6918    8.4788 C.ar      1 <0>         0.0000
      7 C7          1.5280   -0.0043    5.6900 C.2       1 <0>         0.0000
      8 C8          1.9325   -1.0133    2.6768 C.2       1 <0>         0.0000
      9 C9         -2.8125    0.5348   -2.7511 C.3       1 <0>         0.0000
     10 C10        -2.5812    3.0315   -2.9817 C.3       1 <0>         0.0000
     11 C11         1.5761    0.1765   -1.0474 C.3       1 <0>         0.0000
     12 C12         0.4360    0.4372   -2.0380 C.3       1 <0>         0.0000
     13 C13         2.3649   -0.5352    1.2935 C.3       1 <0>         0.0000
     14 C14         1.1534   -0.2750    0.3710 C.3       1 <0>         0.0000
     15 C15        -1.8423    1.7019   -2.8899 C.3       1 <0>         0.0000
     16 N1          0.3597   -1.5080    0.3138 N.3       1 <0>         0.0000
     17 N2          0.7320   -0.3536    4.6161 N.am      1 <0>         0.0000
     18 N3          1.1743   -0.0714    3.3469 N.am      1 <0>         0.0000
     19 O1          2.6215    0.5492    5.6056 O.2       1 <0>         0.0000
     20 O2          2.2555   -2.1109    3.1269 O.2       1 <0>         0.0000
     21 O3          3.2186   -1.5159    0.7230 O.3       1 <0>         0.0000
     22 S1         -0.7139    1.7277   -1.4786 S.3       1 <0>         0.0000
     23 Cl1        -2.6279   -0.7789    8.7104 Cl        1 <0>         0.0000
     24 H1          1.9889   -1.0289   10.1992 H         1 <0>         0.0000
     25 H2          2.9139   -0.5000    7.9709 H         1 <0>         0.0000
     26 H3         -0.4524   -1.1543   10.5388 H         1 <0>         0.0000
     27 H4         -1.0758   -0.2147    6.3801 H         1 <0>         0.0000
     28 H5         -3.4266    0.6553   -1.8516 H         1 <0>         0.0000
     29 H6         -3.4950    0.4797   -3.6065 H         1 <0>         0.0000
     30 H7         -2.2889   -0.4243   -2.6659 H         1 <0>         0.0000
     31 H8         -3.1918    3.1904   -2.0858 H         1 <0>         0.0000
     32 H9         -3.2564    3.0539   -3.8443 H         1 <0>         0.0000
     33 H10        -1.8903    3.8784   -3.0633 H         1 <0>         0.0000
     34 H11         2.1631    1.1018   -0.9736 H         1 <0>         0.0000
     35 H12         2.2520   -0.5707   -1.4824 H         1 <0>         0.0000
     36 H13        -0.1421   -0.4839   -2.1668 H         1 <0>         0.0000
     37 H14         0.8216    0.7132   -3.0237 H         1 <0>         0.0000
     38 H15         2.9484    0.3859    1.4229 H         1 <0>         0.0000
     39 H16         0.5249    0.4957    0.8291 H         1 <0>         0.0000
     40 H17        -1.2390    1.5625   -3.7933 H         1 <0>         0.0000
     41 H18        -0.4842   -1.3249   -0.2178 H         1 <0>         0.0000
     42 H19         0.0690   -1.7492    1.2550 H         1 <0>         0.0000
     43 H20        -0.1619   -0.8097    4.7623 H         1 <0>         0.0000
     44 H21         0.9480    0.8148    2.9078 H         1 <0>         0.0000
     45 H22         2.7041   -2.3378    0.6655 H         1 <0>         0.0000
@<TRIPOS>BOND
     1    1    2 ar
     2    1    3 ar
     3    2    5 ar
     4    3    6 ar
     5    4    5 ar
     6    4    6 ar
     7    5    7 1
     8    6   23 1
     9    7   17 am
    10    7   19 2
    11    8   13 1
    12    8   18 am
    13    8   20 2
    14    9   15 1
    15   10   15 1
    16   11   12 1
    17   11   14 1
    18   12   22 1
    19   13   14 1
    20   13   21 1
    21   14   16 1
    22   15   22 1
    23   17   18 1
    24    1   24 1
    25    2   25 1
    26    3   26 1
    27    4   27 1
    28    9   28 1
    29    9   29 1
    30    9   30 1
    31   10   31 1
    32   10   32 1
    33   10   33 1
    34   11   34 1
    35   11   35 1
    36   12   36 1
    37   12   37 1
    38   13   38 1
    39   14   39 1
    40   15   40 1
    41   16   41 1
    42   16   42 1
    43   17   43 1
    44   18   44 1
    45   21   45 1
@<TRIPOS>MOLECULE
LIGAND
   45    45     0     0     0
SMALL
NO_CHARGES

@<TRIPOS>ATOM
      1 C1          1.4828   -0.9664    9.1345 C.ar      1 <0>         0.0000
      2 C2          1.8325   -0.6995    7.8109 C.ar      1 <0>         0.0000
      3 C3          1.9106   -2.1455    9.7447 C.ar      1 <0>         0.0000
      4 C4          3.0378   -2.7908    7.7076 C.ar      1 <0>         0.0000
      5 C5          2.6100   -1.6117    7.0974 C.ar      1 <0>         0.0000
      6 C6          2.6881   -3.0577    9.0313 C.ar      1 <0>         0.0000
      7 C7          2.9815   -1.3268    5.6872 C.2       1 <0>         0.0000
      8 C8          1.9325   -1.0133    2.6768 C.2       1 <0>         0.0000
      9 C9          1.4564    5.4762    1.2996 C.3       1 <0>         0.0000
     10 C10         0.2261    5.4824    3.4965 C.3       1 <0>         0.0000
     11 C11         0.2195    0.8307    0.9188 C.3       1 <0>         0.0000
     12 C12         0.8590    2.2074    1.1305 C.3       1 <0>         0.0000
     13 C13         2.3649   -0.5352    1.2935 C.3       1 <0>         0.0000
     14 C14         1.1534   -0.2750    0.3710 C.3       1 <0>         0.0000
     15 C15         0.8895    4.6225    2.4275 C.3       1 <0>         0.0000
     16 N1          1.6681    0.0834   -0.9557 N.3       1 <0>         0.0000
     17 N2          2.1084   -0.5131    4.9911 N.am      1 <0>         0.0000
     18 N3          2.3999   -0.1941    3.6876 N.am      1 <0>         0.0000
     19 O1          4.0191   -1.8000    5.2304 O.2       1 <0>         0.0000
     20 O2          1.2610   -2.0296    2.8442 O.2       1 <0>         0.0000
     21 O3          3.2186   -1.5159    0.7230 O.3       1 <0>         0.0000
     22 S1         -0.3102    3.4478    1.7590 S.3       1 <0>         0.0000
     23 Cl1         3.2160   -4.5123    9.7850 Cl        1 <0>         0.0000
     24 H1          0.8778   -0.2559    9.6899 H         1 <0>         0.0000
     25 H2          1.4931    0.2227    7.3462 H         1 <0>         0.0000
     26 H3          1.6303   -2.3400   10.7768 H         1 <0>         0.0000
     27 H4          3.6446   -3.5004    7.1487 H         1 <0>         0.0000
     28 H5          0.6599    6.0638    0.8297 H         1 <0>         0.0000
     29 H6          2.2059    6.1832    1.6727 H         1 <0>         0.0000
     30 H7          1.9195    4.8646    0.5169 H         1 <0>         0.0000
     31 H8         -0.5894    6.0701    3.0604 H         1 <0>         0.0000
     32 H9          0.9374    6.1894    3.9378 H         1 <0>         0.0000
     33 H10        -0.2008    4.8752    4.3030 H         1 <0>         0.0000
     34 H11        -0.6259    0.9652    0.2307 H         1 <0>         0.0000
     35 H12        -0.2197    0.5004    1.8688 H         1 <0>         0.0000
     36 H13         1.2423    2.5738    0.1722 H         1 <0>         0.0000
     37 H14         1.7108    2.1489    1.8142 H         1 <0>         0.0000
     38 H15         2.9484    0.3859    1.4229 H         1 <0>         0.0000
     39 H16         0.5915   -1.2082    0.2610 H         1 <0>         0.0000
     40 H17         1.7002    4.0441    2.8832 H         1 <0>         0.0000
     41 H18         0.8845    0.1717   -1.5934 H         1 <0>         0.0000
     42 H19         2.2416   -0.6802   -1.2969 H         1 <0>         0.0000
     43 H20         1.2682   -0.1582    5.4344 H         1 <0>         0.0000
     44 H21         2.9499    0.6302    3.4697 H         1 <0>         0.0000
     45 H22         2.7041   -2.3378    0.6655 H         1 <0>         0.0000
@<TRIPOS>BOND
     1    1    2 ar
     2    1    3 ar
     3    2    5 ar
     4    3    6 ar
     5    4    5 ar
     6    4    6 ar
     7    5    7 1
     8    6   23 1
     9    7   17 am
    10    7   19 2
    11    8   13 1
    12    8   18 am
    13    8   20 2
    14    9   15 1
    15   10   15 1
    16   11   12 1
    17   11   14 1
    18   12   22 1
    19   13   14 1
    20   13   21 1
    21   14   16 1
    22   15   22 1
    23   17   18 1
    24    1   24 1
    25    2   25 1
    26    3   26 1
    27    4   27 1
    28    9   28 1
    29    9   29 1
    30    9   30 1
    31   10   31 1
    32   10   32 1
    33   10   33 1
    34   11   34 1
    35   11   35 1
    36   12   36 1
    37   12   37 1
    38   13   38 1
    39   14   39 1
    40   15   40 1
    41   16   41 1
    42   16   42 1
    43   17   43 1
    44   18   44 1
    45   21   45 1
@<TRIPOS>MOLECULE
LIGAND
   45    45     0     0     0
SMALL
NO_CHARGES

@<TRIPOS>ATOM
      1 C1         -1.0489   -4.6607    7.0939 C.ar      1 <0>         0.0000
      2 C2         -0.5063   -4.1726    5.9053 C.ar      1 <0>         0.0000
      3 C3         -0.2082   -5.1260    8.1051 C.ar      1 <0>         0.0000
      4 C4          1.7177   -4.6153    6.7388 C.ar      1 <0>         0.0000
      5 C5          0.8770   -4.1499    5.7277 C.ar      1 <0>         0.0000
      6 C6          1.1751   -5.1033    7.9275 C.ar      1 <0>         0.0000
      7 C7          1.4542   -3.6304    4.4609 C.2       1 <0>         0.0000
      8 C8          1.9325   -1.0133    2.6768 C.2       1 <0>         0.0000
      9 C9         -2.8396    0.6809   -2.6742 C.3       1 <0>         0.0000
     10 C10        -4.6560   -0.1960   -1.1670 C.3       1 <0>         0.0000
     11 C11         0.2195    0.8307    0.9188 C.3       1 <0>         0.0000
     12 C12        -1.0001    1.1700    0.0549 C.3       1 <0>         0.0000
     13 C13         2.3649   -0.5352    1.2935 C.3       1 <0>         0.0000
     14 C14         1.1534   -0.2750    0.3710 C.3       1 <0>         0.0000
     15 C15        -3.3416    0.5718   -1.2395 C.3       1 <0>         0.0000
     16 N1          1.6681    0.0834   -0.9557 N.3       1 <0>         0.0000
     17 N2          0.6851   -2.6985    3.7909 N.am      1 <0>         0.0000
     18 N3          1.1665   -2.1628    2.6216 N.am      1 <0>         0.0000
     19 O1          2.5559   -4.0300    4.0926 O.2       1 <0>         0.0000
     20 O2          2.2299   -0.4108    3.7066 O.2       1 <0>         0.0000
     21 O3          3.2186   -1.5159    0.7230 O.3       1 <0>         0.0000
     22 S1         -2.0977   -0.2515   -0.2193 S.3       1 <0>         0.0000
     23 Cl1         2.2119   -5.6772    9.1758 Cl        1 <0>         0.0000
     24 H1         -2.1260   -4.6780    7.2321 H         1 <0>         0.0000
     25 H2         -1.1717   -3.8129    5.1246 H         1 <0>         0.0000
     26 H3         -0.6454   -5.5034    9.0259 H         1 <0>         0.0000
     27 H4          2.7965   -4.5959    6.5977 H         1 <0>         0.0000
     28 H5         -2.6847   -0.3167   -3.1002 H         1 <0>         0.0000
     29 H6         -3.5648    1.1984   -3.3121 H         1 <0>         0.0000
     30 H7         -1.8850    1.2160   -2.7338 H         1 <0>         0.0000
     31 H8         -4.5291   -1.2071   -1.5698 H         1 <0>         0.0000
     32 H9         -5.4375    0.2943   -1.7580 H         1 <0>         0.0000
     33 H10        -5.0153   -0.2952   -0.1363 H         1 <0>         0.0000
     34 H11        -0.1531    0.5335    1.9082 H         1 <0>         0.0000
     35 H12         0.7975    1.7493    1.0822 H         1 <0>         0.0000
     36 H13        -0.6573    1.5138   -0.9268 H         1 <0>         0.0000
     37 H14        -1.5832    1.9849    0.4933 H         1 <0>         0.0000
     38 H15         2.9484    0.3859    1.4229 H         1 <0>         0.0000
     39 H16         0.5915   -1.2082    0.2610 H         1 <0>         0.0000
     40 H17        -3.4899    1.5778   -0.8328 H         1 <0>         0.0000
     41 H18         0.8845    0.1717   -1.5934 H         1 <0>         0.0000
     42 H19         2.2416   -0.6802   -1.2969 H         1 <0>         0.0000
     43 H20        -0.2179   -2.4154    4.1557 H         1 <0>         0.0000
     44 H21         0.9630   -2.6038    1.7309 H         1 <0>         0.0000
     45 H22         2.7041   -2.3378    0.6655 H         1 <0>         0.0000
@<TRIPOS>BOND
     1    1    2 ar
     2    1    3 ar
     3    2    5 ar
     4    3    6 ar
     5    4    5 ar
     6    4    6 ar
     7    5    7 1
     8    6   23 1
     9    7   17 am
    10    7   19 2
    11    8   13 1
    12    8   18 am
    13    8   20 2
    14    9   15 1
    15   10   15 1
    16   11   12 1
    17   11   14 1
    18   12   22 1
    19   13   14 1
    20   13   21 1
    21   14   16 1
    22   15   22 1
    23   17   18 1
    24    1   24 1
    25    2   25 1
    26    3   26 1
    27    4   27 1
    28    9   28 1
    29    9   29 1
    30    9   30 1
    31   10   31 1
    32   10   32 1
    33   10   33 1
    34   11   34 1
    35   11   35 1
    36   12   36 1
    37   12   37 1
    38   13   38 1
    39   14   39 1
    40   15   40 1
    41   16   41 1
    42   16   42 1
    43   17   43 1
    44   18   44 1
    45   21   45 1
@<TRIPOS>MOLECULE
LIGAND
   45    45     0     0     0
SMALL
NO_CHARGES

@<TRIPOS>ATOM
      1 C1          1.3200   -1.9638    8.8676 C.ar      1 <0>         0.0000
      2 C2          1.6218   -1.5213    7.5797 C.ar      1 <0>         0.0000
      3 C3          2.1606   -1.6378    9.9320 C.ar      1 <0>         0.0000
      4 C4          3.6050   -0.4271    8.4204 C.ar      1 <0>         0.0000
      5 C5          2.7643   -0.7530    7.3561 C.ar      1 <0>         0.0000
      6 C6          3.3031   -0.8695    9.7084 C.ar      1 <0>         0.0000
      7 C7          3.0854   -0.2826    5.9837 C.2       1 <0>         0.0000
      8 C8          1.9325   -1.0133    2.6768 C.2       1 <0>         0.0000
      9 C9         -4.7601    2.7149    0.5929 C.3       1 <0>         0.0000
     10 C10        -3.4472    2.6704   -1.5553 C.3       1 <0>         0.0000
     11 C11         0.2195    0.8307    0.9188 C.3       1 <0>         0.0000
     12 C12        -1.0001    1.1700    0.0549 C.3       1 <0>         0.0000
     13 C13         2.3649   -0.5352    1.2935 C.3       1 <0>         0.0000
     14 C14         1.1534   -0.2750    0.3710 C.3       1 <0>         0.0000
     15 C15        -3.5656    2.1167   -0.1405 C.3       1 <0>         0.0000
     16 N1          1.6681    0.0834   -0.9557 N.3       1 <0>         0.0000
     17 N2          2.6023   -1.0670    4.9540 N.am      1 <0>         0.0000
     18 N3          2.8469   -0.6810    3.6590 N.am      1 <0>         0.0000
     19 O1          3.7293    0.7533    5.8374 O.2       1 <0>         0.0000
     20 O2          0.8915   -1.6405    2.8632 O.2       1 <0>         0.0000
     21 O3          3.2186   -1.5159    0.7230 O.3       1 <0>         0.0000
     22 S1         -2.0492    2.4644    0.7791 S.3       1 <0>         0.0000
     23 Cl1         4.3397   -0.4674   11.0222 Cl        1 <0>         0.0000
     24 H1          0.4302   -2.5616    9.0415 H         1 <0>         0.0000
     25 H2          0.9591   -1.7818    6.7584 H         1 <0>         0.0000
     26 H3          1.9126   -1.9897   10.9300 H         1 <0>         0.0000
     27 H4          4.4953    0.1729    8.2431 H         1 <0>         0.0000
     28 H5         -4.6637    3.8047    0.6519 H         1 <0>         0.0000
     29 H6         -5.6983    2.4987    0.0696 H         1 <0>         0.0000
     30 H7         -4.8423    2.3359    1.6179 H         1 <0>         0.0000
     31 H8         -3.3306    3.7597   -1.5293 H         1 <0>         0.0000
     32 H9         -4.3446    2.4528   -2.1452 H         1 <0>         0.0000
     33 H10        -2.5797    2.2592   -2.0841 H         1 <0>         0.0000
     34 H11        -0.1531    0.5335    1.9082 H         1 <0>         0.0000
     35 H12         0.7975    1.7493    1.0822 H         1 <0>         0.0000
     36 H13        -1.6176    0.2727   -0.0585 H         1 <0>         0.0000
     37 H14        -0.7009    1.4813   -0.9501 H         1 <0>         0.0000
     38 H15         2.9484    0.3859    1.4229 H         1 <0>         0.0000
     39 H16         0.5915   -1.2082    0.2610 H         1 <0>         0.0000
     40 H17        -3.6811    1.0287   -0.1886 H         1 <0>         0.0000
     41 H18         0.8845    0.1717   -1.5934 H         1 <0>         0.0000
     42 H19         2.2416   -0.6802   -1.2969 H         1 <0>         0.0000
     43 H20         2.0769   -1.9119    5.1509 H         1 <0>         0.0000
     44 H21         3.6858   -0.1599    3.4266 H         1 <0>         0.0000
     45 H22         2.7041   -2.3378    0.6655 H         1 <0>         0.0000
@<TRIPOS>BOND
     1    1    2 ar
     2    1    3 ar
     3    2    5 ar
     4    3    6 ar
     5    4    5 ar
     6    4    6 ar
     7    5    7 1
     8    6   23 1
     9    7   17 am
    10    7   19 2
    11    8   13 1
    12    8   18 am
    13    8   20 2
    14    9   15 1
    15   10   15 1
    16   11   12 1
    17   11   14 1
    18   12   22 1
    19   13   14 1
    20   13   21 1
    21   14   16 1
    22   15   22 1
    23   17   18 1
    24    1   24 1
    25    2   25 1
    26    3   26 1
    27    4   27 1
    28    9   28 1
    29    9   29 1
    30    9   30 1
    31   10   31 1
    32   10   32 1
    33   10   33 1
    34   11   34 1
    35   11   35 1
    36   12   36 1
    37   12   37 1
    38   13   38 1
    39   14   39 1
    40   15   40 1
    41   16   41 1
    42   16   42 1
    43   17   43 1
    44   18   44 1
    45   21   45 1
@<TRIPOS>MOLECULE
LIGAND
   45    45     0     0     0
SMALL
NO_CHARGES

@<TRIPOS>ATOM
      1 C1         -2.1901   -5.6246    6.3015 C.ar      1 <0>         0.0000
      2 C2         -1.7709   -5.0911    5.0828 C.ar      1 <0>         0.0000
      3 C3         -1.7948   -5.0260    7.4978 C.ar      1 <0>         0.0000
      4 C4         -0.5609   -3.3604    6.2567 C.ar      1 <0>         0.0000
      5 C5         -0.9563   -3.9590    5.0604 C.ar      1 <0>         0.0000
      6 C6         -0.9802   -3.8940    7.4754 C.ar      1 <0>         0.0000
      7 C7         -0.5097   -3.3917    3.7617 C.2       1 <0>         0.0000
      8 C8          1.9325   -1.0133    2.6768 C.2       1 <0>         0.0000
      9 C9          0.9492    3.5395    4.1781 C.3       1 <0>         0.0000
     10 C10        -1.5671    3.4454    4.1811 C.3       1 <0>         0.0000
     11 C11         0.2195    0.8307    0.9188 C.3       1 <0>         0.0000
     12 C12         0.8590    2.2074    1.1305 C.3       1 <0>         0.0000
     13 C13         2.3649   -0.5352    1.2935 C.3       1 <0>         0.0000
     14 C14         1.1534   -0.2750    0.3710 C.3       1 <0>         0.0000
     15 C15        -0.2901    2.9668    3.5009 C.3       1 <0>         0.0000
     16 N1          1.6681    0.0834   -0.9557 N.3       1 <0>         0.0000
     17 N2          0.6851   -2.6985    3.7909 N.am      1 <0>         0.0000
     18 N3          1.1665   -2.1628    2.6216 N.am      1 <0>         0.0000
     19 O1         -1.1937   -3.5743    2.7577 O.2       1 <0>         0.0000
     20 O2          2.2299   -0.4108    3.7066 O.2       1 <0>         0.0000
     21 O3          3.2186   -1.5159    0.7230 O.3       1 <0>         0.0000
     22 S1         -0.3102    3.4478    1.7590 S.3       1 <0>         0.0000
     23 Cl1        -0.4932   -3.1556    8.9519 Cl        1 <0>         0.0000
     24 H1         -2.8246   -6.5059    6.3187 H         1 <0>         0.0000
     25 H2         -2.0854   -5.5665    4.1572 H         1 <0>         0.0000
     26 H3         -2.1292   -5.4530    8.4398 H         1 <0>         0.0000
     27 H4          0.0741   -2.4771    6.2361 H         1 <0>         0.0000
     28 H5          0.9275    4.6347    4.1481 H         1 <0>         0.0000
     29 H6          1.0005    3.2436    5.2319 H         1 <0>         0.0000
     30 H7          1.8721    3.2151    3.6839 H         1 <0>         0.0000
     31 H8         -1.6274    4.5391    4.1512 H         1 <0>         0.0000
     32 H9         -1.5938    3.1464    5.2349 H         1 <0>         0.0000
     33 H10        -2.4642    3.0528    3.6891 H         1 <0>         0.0000
     34 H11        -0.6259    0.9652    0.2307 H         1 <0>         0.0000
     35 H12        -0.2197    0.5004    1.8688 H         1 <0>         0.0000
     36 H13         1.2423    2.5738    0.1722 H         1 <0>         0.0000
     37 H14         1.7108    2.1489    1.8142 H         1 <0>         0.0000
     38 H15         2.9484    0.3859    1.4229 H         1 <0>         0.0000
     39 H16         0.5915   -1.2082    0.2610 H         1 <0>         0.0000
     40 H17        -0.2491    1.8731    3.5416 H         1 <0>         0.0000
     41 H18         0.8845    0.1717   -1.5934 H         1 <0>         0.0000
     42 H19         2.2416   -0.6802   -1.2969 H         1 <0>         0.0000
     43 H20         1.1968   -2.5873    4.6594 H         1 <0>         0.0000
     44 H21         0.9630   -2.6038    1.7309 H         1 <0>         0.0000
     45 H22         2.7041   -2.3378    0.6655 H         1 <0>         0.0000
@<TRIPOS>BOND
     1    1    2 ar
     2    1    3 ar
     3    2    5 ar
     4    3    6 ar
     5    4    5 ar
     6    4    6 ar
     7    5    7 1
     8    6   23 1
     9    7   17 am
    10    7   19 2
    11    8   13 1
    12    8   18 am
    13    8   20 2
    14    9   15 1
    15   10   15 1
    16   11   12 1
    17   11   14 1
    18   12   22 1
    19   13   14 1
    20   13   21 1
    21   14   16 1
    22   15   22 1
    23   17   18 1
    24    1   24 1
    25    2   25 1
    26    3   26 1
    27    4   27 1
    28    9   28 1
    29    9   29 1
    30    9   30 1
    31   10   31 1
    32   10   32 1
    33   10   33 1
    34   11   34 1
    35   11   35 1
    36   12   36 1
    37   12   37 1
    38   13   38 1
    39   14   39 1
    40   15   40 1
    41   16   41 1
    42   16   42 1
    43   17   43 1
    44   18   44 1
    45   21   45 1
@<TRIPOS>MOLECULE
LIGAND
   45    45     0     0     0
SMALL
NO_CHARGES

@<TRIPOS>ATOM
      1 C1         -0.8568   -0.8437    8.7635 C.ar      1 <0>         0.0000
      2 C2         -0.6134   -0.4635    7.4437 C.ar      1 <0>         0.0000
      3 C3          0.2081   -1.1727    9.6022 C.ar      1 <0>         0.0000
      4 C4          1.7598   -0.7415    7.8013 C.ar      1 <0>         0.0000
      5 C5          0.6949   -0.4125    6.9626 C.ar      1 <0>         0.0000
      6 C6          1.5164   -1.1216    9.1211 C.ar      1 <0>         0.0000
      7 C7          0.9532   -0.0081    5.5563 C.2       1 <0>         0.0000
      8 C8          1.9325   -1.0133    2.6768 C.2       1 <0>         0.0000
      9 C9         -4.0383    1.9882   -1.0273 C.3       1 <0>         0.0000
     10 C10        -3.4456    4.3900   -0.5583 C.3       1 <0>         0.0000
     11 C11         0.2195    0.8307    0.9188 C.3       1 <0>         0.0000
     12 C12        -1.0001    1.1700    0.0549 C.3       1 <0>         0.0000
     13 C13         2.3649   -0.5352    1.2935 C.3       1 <0>         0.0000
     14 C14         1.1534   -0.2750    0.3710 C.3       1 <0>         0.0000
     15 C15        -2.9141    2.9715   -0.7245 C.3       1 <0>         0.0000
     16 N1          1.6681    0.0834   -0.9557 N.3       1 <0>         0.0000
     17 N2          2.1084   -0.5131    4.9911 N.am      1 <0>         0.0000
     18 N3          2.3999   -0.1941    3.6876 N.am      1 <0>         0.0000
     19 O1          0.1465    0.7178    4.9806 O.2       1 <0>         0.0000
     20 O2          1.2610   -2.0296    2.8442 O.2       1 <0>         0.0000
     21 O3          3.2186   -1.5159    0.7230 O.3       1 <0>         0.0000
     22 S1         -2.0492    2.4644    0.7791 S.3       1 <0>         0.0000
     23 Cl1         2.8299   -1.5272   10.1568 Cl        1 <0>         0.0000
     24 H1         -1.8754   -0.8830    9.1379 H         1 <0>         0.0000
     25 H2         -1.4514   -0.2096    6.7997 H         1 <0>         0.0000
     26 H3          0.0031   -1.4671   10.6283 H         1 <0>         0.0000
     27 H4          2.7794   -0.7003    7.4234 H         1 <0>         0.0000
     28 H5         -4.7755    1.9915   -0.2167 H         1 <0>         0.0000
     29 H6         -4.5662    2.2576   -1.9489 H         1 <0>         0.0000
     30 H7         -3.6673    0.9620   -1.1303 H         1 <0>         0.0000
     31 H8         -4.1737    4.4304    0.2595 H         1 <0>         0.0000
     32 H9         -3.9550    4.7339   -1.4654 H         1 <0>         0.0000
     33 H10        -2.6458    5.1012   -0.3221 H         1 <0>         0.0000
     34 H11        -0.1531    0.5335    1.9082 H         1 <0>         0.0000
     35 H12         0.7975    1.7493    1.0822 H         1 <0>         0.0000
     36 H13        -1.6176    0.2727   -0.0585 H         1 <0>         0.0000
     37 H14        -0.7009    1.4813   -0.9501 H         1 <0>         0.0000
     38 H15         2.9484    0.3859    1.4229 H         1 <0>         0.0000
     39 H16         0.5915   -1.2082    0.2610 H         1 <0>         0.0000
     40 H17        -2.1892    2.9529   -1.5453 H         1 <0>         0.0000
     41 H18         0.8845    0.1717   -1.5934 H         1 <0>         0.0000
     42 H19         2.2416   -0.6802   -1.2969 H         1 <0>         0.0000
     43 H20         2.7293   -1.1081    5.5287 H         1 <0>         0.0000
     44 H21         2.9499    0.6302    3.4697 H         1 <0>         0.0000
     45 H22         2.7041   -2.3378    0.6655 H         1 <0>         0.0000
@<TRIPOS>BOND
     1    1    2 ar
     2    1    3 ar
     3    2    5 ar
     4    3    6 ar
     5    4    5 ar
     6    4    6 ar
     7    5    7 1
     8    6   23 1
     9    7   17 am
    10    7   19 2
    11    8   13 1
    12    8   18 am
    13    8   20 2
    14    9   15 1
    15   10   15 1
    16   11   12 1
    17   11   14 1
    18   12   22 1
    19   13   14 1
    20   13   21 1
    21   14   16 1
    22   15   22 1
    23   17   18 1
    24    1   24 1
    25    2   25 1
    26    3   26 1
    27    4   27 1
    28    9   28 1
    29    9   29 1
    30    9   30 1
    31   10   31 1
    32   10   32 1
    33   10   33 1
    34   11   34 1
    35   11   35 1
    36   12   36 1
    37   12   37 1
    38   13   38 1
    39   14   39 1
    40   15   40 1
    41   16   41 1
    42   16   42 1
    43   17   43 1
    44   18   44 1
    45   21   45 1
@<TRIPOS>MOLECULE
LIGAND
   45    45     0     0     0
SMALL
NO_CHARGES

@<TRIPOS>ATOM
      1 C1          1.3177   -0.8505    9.3642 C.ar      1 <0>         0.0000
      2 C2          1.8364   -0.5518    8.1043 C.ar      1 <0>         0.0000
      3 C3         -0.0628   -0.9206    9.5514 C.ar      1 <0>         0.0000
      4 C4         -0.4059   -0.3930    7.2188 C.ar      1 <0>         0.0000
      5 C5          0.9746   -0.3231    7.0316 C.ar      1 <0>         0.0000
      6 C6         -0.9246   -0.6918    8.4788 C.ar      1 <0>         0.0000
      7 C7          1.5280   -0.0043    5.6900 C.2       1 <0>         0.0000
      8 C8          1.9325   -1.0133    2.6768 C.2       1 <0>         0.0000
      9 C9          0.1128    3.4388   -3.4370 C.3       1 <0>         0.0000
     10 C10        -0.1648    4.3761   -1.1165 C.3       1 <0>         0.0000
     11 C11         1.5761    0.1765   -1.0474 C.3       1 <0>         0.0000
     12 C12         0.4360    0.4372   -2.0380 C.3       1 <0>         0.0000
     13 C13         2.3649   -0.5352    1.2935 C.3       1 <0>         0.0000
     14 C14         1.1534   -0.2750    0.3710 C.3       1 <0>         0.0000
     15 C15         0.2674    3.1720   -1.9445 C.3       1 <0>         0.0000
     16 N1          0.3597   -1.5080    0.3138 N.3       1 <0>         0.0000
     17 N2          0.7320   -0.3536    4.6161 N.am      1 <0>         0.0000
     18 N3          1.1743   -0.0714    3.3469 N.am      1 <0>         0.0000
     19 O1          2.6215    0.5492    5.6056 O.2       1 <0>         0.0000
     20 O2          2.2555   -2.1109    3.1269 O.2       1 <0>         0.0000
     21 O3          3.2186   -1.5159    0.7230 O.3       1 <0>         0.0000
     22 S1         -0.7139    1.7277   -1.4786 S.3       1 <0>         0.0000
     23 Cl1        -2.6279   -0.7789    8.7104 Cl        1 <0>         0.0000
     24 H1          1.9889   -1.0289   10.1992 H         1 <0>         0.0000
     25 H2          2.9139   -0.5000    7.9709 H         1 <0>         0.0000
     26 H3         -0.4524   -1.1543   10.5388 H         1 <0>         0.0000
     27 H4         -1.0758   -0.2147    6.3801 H         1 <0>         0.0000
     28 H5         -0.9313    3.6698   -3.6761 H         1 <0>         0.0000
     29 H6          0.7168    4.2965   -3.7534 H         1 <0>         0.0000
     30 H7          0.4041    2.5712   -4.0399 H         1 <0>         0.0000
     31 H8         -1.2132    4.6215   -1.3199 H         1 <0>         0.0000
     32 H9          0.4307    5.2627   -1.3609 H         1 <0>         0.0000
     33 H10        -0.0742    4.1863   -0.0408 H         1 <0>         0.0000
     34 H11         2.1631    1.1018   -0.9736 H         1 <0>         0.0000
     35 H12         2.2520   -0.5707   -1.4824 H         1 <0>         0.0000
     36 H13        -0.1421   -0.4839   -2.1668 H         1 <0>         0.0000
     37 H14         0.8216    0.7132   -3.0237 H         1 <0>         0.0000
     38 H15         2.9484    0.3859    1.4229 H         1 <0>         0.0000
     39 H16         0.5249    0.4957    0.8291 H         1 <0>         0.0000
     40 H17         1.3162    2.9436   -1.7268 H         1 <0>         0.0000
     41 H18        -0.4842   -1.3249   -0.2178 H         1 <0>         0.0000
     42 H19         0.0690   -1.7492    1.2550 H         1 <0>         0.0000
     43 H20        -0.1619   -0.8097    4.7623 H         1 <0>         0.0000
     44 H21         0.9480    0.8148    2.9078 H         1 <0>         0.0000
     45 H22         2.7041   -2.3378    0.6655 H         1 <0>         0.0000
@<TRIPOS>BOND
     1    1    2 ar
     2    1    3 ar
     3    2    5 ar
     4    3    6 ar
     5    4    5 ar
     6    4    6 ar
     7    5    7 1
     8    6   23 1
     9    7   17 am
    10    7   19 2
    11    8   13 1
    12    8   18 am
    13    8   20 2
    14    9   15 1
    15   10   15 1
    16   11   12 1
    17   11   14 1
    18   12   22 1
    19   13   14 1
    20   13   21 1
    21   14   16 1
    22   15   22 1
    23   17   18 1
    24    1   24 1
    25    2   25 1
    26    3   26 1
    27    4   27 1
    28    9   28 1
    29    9   29 1
    30    9   30 1
    31   10   31 1
    32   10   32 1
    33   10   33 1
    34   11   34 1
    35   11   35 1
    36   12   36 1
    37   12   37 1
    38   13   38 1
    39   14   39 1
    40   15   40 1
    41   16   41 1
    42   16   42 1
    43   17   43 1
    44   18   44 1
    45   21   45 1
@<TRIPOS>MOLECULE
LIGAND
   45    45     0     0     0
SMALL
NO_CHARGES

@<TRIPOS>ATOM
      1 C1          0.6850   -5.9098    7.3717 C.ar      1 <0>         0.0000
      2 C2          1.2259   -5.4217    6.1822 C.ar      1 <0>         0.0000
      3 C3         -0.2049   -5.1263    8.1065 C.ar      1 <0>         0.0000
      4 C4         -0.0128   -3.3664    6.4625 C.ar      1 <0>         0.0000
      5 C5          0.8770   -4.1499    5.7277 C.ar      1 <0>         0.0000
      6 C6         -0.5537   -3.8546    7.6520 C.ar      1 <0>         0.0000
      7 C7          1.4542   -3.6304    4.4609 C.2       1 <0>         0.0000
      8 C8          1.9325   -1.0133    2.6768 C.2       1 <0>         0.0000
      9 C9          0.9492    3.5395    4.1781 C.3       1 <0>         0.0000
     10 C10        -1.5671    3.4454    4.1811 C.3       1 <0>         0.0000
     11 C11         0.2195    0.8307    0.9188 C.3       1 <0>         0.0000
     12 C12         0.8590    2.2074    1.1305 C.3       1 <0>         0.0000
     13 C13         2.3649   -0.5352    1.2935 C.3       1 <0>         0.0000
     14 C14         1.1534   -0.2750    0.3710 C.3       1 <0>         0.0000
     15 C15        -0.2901    2.9668    3.5009 C.3       1 <0>         0.0000
     16 N1          1.6681    0.0834   -0.9557 N.3       1 <0>         0.0000
     17 N2          0.6851   -2.6985    3.7909 N.am      1 <0>         0.0000
     18 N3          1.1665   -2.1628    2.6216 N.am      1 <0>         0.0000
     19 O1          2.5559   -4.0300    4.0926 O.2       1 <0>         0.0000
     20 O2          2.2299   -0.4108    3.7066 O.2       1 <0>         0.0000
     21 O3          3.2186   -1.5159    0.7230 O.3       1 <0>         0.0000
     22 S1         -0.3102    3.4478    1.7590 S.3       1 <0>         0.0000
     23 Cl1        -1.6522   -2.8885    8.5590 Cl        1 <0>         0.0000
     24 H1          0.9565   -6.9001    7.7252 H         1 <0>         0.0000
     25 H2          1.9183   -6.0415    5.6185 H         1 <0>         0.0000
     26 H3         -0.6183   -5.5200    9.0315 H         1 <0>         0.0000
     27 H4         -0.2836   -2.3748    6.1052 H         1 <0>         0.0000
     28 H5          0.9275    4.6347    4.1481 H         1 <0>         0.0000
     29 H6          1.0005    3.2436    5.2319 H         1 <0>         0.0000
     30 H7          1.8721    3.2151    3.6839 H         1 <0>         0.0000
     31 H8         -1.6274    4.5391    4.1512 H         1 <0>         0.0000
     32 H9         -1.5938    3.1464    5.2349 H         1 <0>         0.0000
     33 H10        -2.4642    3.0528    3.6891 H         1 <0>         0.0000
     34 H11        -0.6259    0.9652    0.2307 H         1 <0>         0.0000
     35 H12        -0.2197    0.5004    1.8688 H         1 <0>         0.0000
     36 H13         1.2423    2.5738    0.1722 H         1 <0>         0.0000
     37 H14         1.7108    2.1489    1.8142 H         1 <0>         0.0000
     38 H15         2.9484    0.3859    1.4229 H         1 <0>         0.0000
     39 H16         0.5915   -1.2082    0.2610 H         1 <0>         0.0000
     40 H17        -0.2491    1.8731    3.5416 H         1 <0>         0.0000
     41 H18         0.8845    0.1717   -1.5934 H         1 <0>         0.0000
     42 H19         2.2416   -0.6802   -1.2969 H         1 <0>         0.0000
     43 H20        -0.2179   -2.4154    4.1557 H         1 <0>         0.0000
     44 H21         0.9630   -2.6038    1.7309 H         1 <0>         0.0000
     45 H22         2.7041   -2.3378    0.6655 H         1 <0>         0.0000
@<TRIPOS>BOND
     1    1    2 ar
     2    1    3 ar
     3    2    5 ar
     4    3    6 ar
     5    4    5 ar
     6    4    6 ar
     7    5    7 1
     8    6   23 1
     9    7   17 am
    10    7   19 2
    11    8   13 1
    12    8   18 am
    13    8   20 2
    14    9   15 1
    15   10   15 1
    16   11   12 1
    17   11   14 1
    18   12   22 1
    19   13   14 1
    20   13   21 1
    21   14   16 1
    22   15   22 1
    23   17   18 1
    24    1   24 1
    25    2   25 1
    26    3   26 1
    27    4   27 1
    28    9   28 1
    29    9   29 1
    30    9   30 1
    31   10   31 1
    32   10   32 1
    33   10   33 1
    34   11   34 1
    35   11   35 1
    36   12   36 1
    37   12   37 1
    38   13   38 1
    39   14   39 1
    40   15   40 1
    41   16   41 1
    42   16   42 1
    43   17   43 1
    44   18   44 1
    45   21   45 1
@<TRIPOS>MOLECULE
LIGAND
   45    45     0     0     0
SMALL
NO_CHARGES

@<TRIPOS>ATOM
      1 C1         -0.3215   -0.8559    8.6664 C.ar      1 <0>         0.0000
      2 C2          0.0752   -0.5122    7.3741 C.ar      1 <0>         0.0000
      3 C3         -1.6746   -0.8506    9.0052 C.ar      1 <0>         0.0000
      4 C4         -2.2343   -0.1577    6.7594 C.ar      1 <0>         0.0000
      5 C5         -0.8811   -0.1631    6.4206 C.ar      1 <0>         0.0000
      6 C6         -2.6310   -0.5015    8.0517 C.ar      1 <0>         0.0000
      7 C7         -0.4576    0.2036    5.0443 C.2       1 <0>         0.0000
      8 C8          1.9325   -1.0133    2.6768 C.2       1 <0>         0.0000
      9 C9          2.4151    5.4477   -0.0931 C.3       1 <0>         0.0000
     10 C10         3.6045    3.5739    1.0963 C.3       1 <0>         0.0000
     11 C11         1.5761    0.1765   -1.0474 C.3       1 <0>         0.0000
     12 C12         2.3784    1.4800   -1.1273 C.3       1 <0>         0.0000
     13 C13         2.3649   -0.5352    1.2935 C.3       1 <0>         0.0000
     14 C14         1.1534   -0.2750    0.3710 C.3       1 <0>         0.0000
     15 C15         2.8874    4.0013   -0.1787 C.3       1 <0>         0.0000
     16 N1          0.3597   -1.5080    0.3138 N.3       1 <0>         0.0000
     17 N2          0.7320   -0.3536    4.6161 N.am      1 <0>         0.0000
     18 N3          1.1743   -0.0714    3.3469 N.am      1 <0>         0.0000
     19 O1         -1.1696    0.9461    4.3728 O.2       1 <0>         0.0000
     20 O2          2.2555   -2.1109    3.1269 O.2       1 <0>         0.0000
     21 O3          3.2186   -1.5159    0.7230 O.3       1 <0>         0.0000
     22 S1          1.4741    2.9151   -0.4766 S.3       1 <0>         0.0000
     23 Cl1        -4.3005   -0.4957    8.4703 Cl        1 <0>         0.0000
     24 H1          0.4232   -1.1280    9.4085 H         1 <0>         0.0000
     25 H2          1.1326   -0.5199    7.1221 H         1 <0>         0.0000
     26 H3         -1.9688   -1.1207   10.0161 H         1 <0>         0.0000
     27 H4         -2.9782    0.1145    6.0133 H         1 <0>         0.0000
     28 H5          1.7293    5.5747    0.7520 H         1 <0>         0.0000
     29 H6          3.2556    6.1330    0.0636 H         1 <0>         0.0000
     30 H7          1.8820    5.7580   -0.9990 H         1 <0>         0.0000
     31 H8          2.9369    3.6722    1.9597 H         1 <0>         0.0000
     32 H9          4.4819    4.2010    1.2898 H         1 <0>         0.0000
     33 H10         3.9317    2.5289    1.0507 H         1 <0>         0.0000
     34 H11         2.1843   -0.6108   -1.5125 H         1 <0>         0.0000
     35 H12         0.6847    0.2765   -1.6798 H         1 <0>         0.0000
     36 H13         2.6151    1.6893   -2.1758 H         1 <0>         0.0000
     37 H14         3.3304    1.3937   -0.5957 H         1 <0>         0.0000
     38 H15         2.9484    0.3859    1.4229 H         1 <0>         0.0000
     39 H16         0.5249    0.4957    0.8291 H         1 <0>         0.0000
     40 H17         3.5706    3.8957   -1.0281 H         1 <0>         0.0000
     41 H18        -0.4842   -1.3249   -0.2178 H         1 <0>         0.0000
     42 H19         0.0690   -1.7492    1.2550 H         1 <0>         0.0000
     43 H20         1.2684   -0.9594    5.2274 H         1 <0>         0.0000
     44 H21         0.9480    0.8148    2.9078 H         1 <0>         0.0000
     45 H22         2.7041   -2.3378    0.6655 H         1 <0>         0.0000
@<TRIPOS>BOND
     1    1    2 ar
     2    1    3 ar
     3    2    5 ar
     4    3    6 ar
     5    4    5 ar
     6    4    6 ar
     7    5    7 1
     8    6   23 1
     9    7   17 am
    10    7   19 2
    11    8   13 1
    12    8   18 am
    13    8   20 2
    14    9   15 1
    15   10   15 1
    16   11   12 1
    17   11   14 1
    18   12   22 1
    19   13   14 1
    20   13   21 1
    21   14   16 1
    22   15   22 1
    23   17   18 1
    24    1   24 1
    25    2   25 1
    26    3   26 1
    27    4   27 1
    28    9   28 1
    29    9   29 1
    30    9   30 1
    31   10   31 1
    32   10   32 1
    33   10   33 1
    34   11   34 1
    35   11   35 1
    36   12   36 1
    37   12   37 1
    38   13   38 1
    39   14   39 1
    40   15   40 1
    41   16   41 1
    42   16   42 1
    43   17   43 1
    44   18   44 1
    45   21   45 1
@<TRIPOS>MOLECULE
LIGAND
   45    45     0     0     0
SMALL
NO_CHARGES

@<TRIPOS>ATOM
      1 C1          1.3691   -2.5452    8.7036 C.ar      1 <0>         0.0000
      2 C2          1.5963   -2.0804    7.4082 C.ar      1 <0>         0.0000
      3 C3          1.1963   -1.6386    9.7496 C.ar      1 <0>         0.0000
      4 C4          1.4779    0.1975    8.2048 C.ar      1 <0>         0.0000
      5 C5          1.6507   -0.7090    7.1588 C.ar      1 <0>         0.0000
      6 C6          1.2507   -0.2673    9.5002 C.ar      1 <0>         0.0000
      7 C7          1.8934   -0.2148    5.7787 C.2       1 <0>         0.0000
      8 C8          1.9325   -1.0133    2.6768 C.2       1 <0>         0.0000
      9 C9         -3.5456    2.3208    3.0565 C.3       1 <0>         0.0000
     10 C10        -4.0220    0.6377    1.2453 C.3       1 <0>         0.0000
     11 C11         0.2195    0.8307    0.9188 C.3       1 <0>         0.0000
     12 C12        -1.0001    1.1700    0.0549 C.3       1 <0>         0.0000
     13 C13         2.3649   -0.5352    1.2935 C.3       1 <0>         0.0000
     14 C14         1.1534   -0.2750    0.3710 C.3       1 <0>         0.0000
     15 C15        -2.9459    1.4397    1.9673 C.3       1 <0>         0.0000
     16 N1          1.6681    0.0834   -0.9557 N.3       1 <0>         0.0000
     17 N2          2.6023   -1.0670    4.9540 N.am      1 <0>         0.0000
     18 N3          2.8469   -0.6810    3.6590 N.am      1 <0>         0.0000
     19 O1          1.4534    0.8829    5.4461 O.2       1 <0>         0.0000
     20 O2          0.8915   -1.6405    2.8632 O.2       1 <0>         0.0000
     21 O3          3.2186   -1.5159    0.7230 O.3       1 <0>         0.0000
     22 S1         -2.0492    2.4644    0.7791 S.3       1 <0>         0.0000
     23 Cl1         1.0368    0.8507   10.7913 Cl        1 <0>         0.0000
     24 H1          1.3265   -3.6129    8.8975 H         1 <0>         0.0000
     25 H2          1.7296   -2.7965    6.6014 H         1 <0>         0.0000
     26 H3          1.0200   -2.0156   10.7537 H         1 <0>         0.0000
     27 H4          1.5203    1.2667    8.0072 H         1 <0>         0.0000
     28 H5         -4.2705    3.0197    2.6246 H         1 <0>         0.0000
     29 H6         -4.0763    1.7229    3.8059 H         1 <0>         0.0000
     30 H7         -2.7806    2.9152    3.5690 H         1 <0>         0.0000
     31 H8         -4.7543    1.3108    0.7855 H         1 <0>         0.0000
     32 H9         -4.5673   -0.0125    1.9385 H         1 <0>         0.0000
     33 H10        -3.6015    0.0146    0.4477 H         1 <0>         0.0000
     34 H11        -0.1531    0.5335    1.9082 H         1 <0>         0.0000
     35 H12         0.7975    1.7493    1.0822 H         1 <0>         0.0000
     36 H13        -1.6176    0.2727   -0.0585 H         1 <0>         0.0000
     37 H14        -0.7009    1.4813   -0.9501 H         1 <0>         0.0000
     38 H15         2.9484    0.3859    1.4229 H         1 <0>         0.0000
     39 H16         0.5915   -1.2082    0.2610 H         1 <0>         0.0000
     40 H17        -2.2253    0.7496    2.4190 H         1 <0>         0.0000
     41 H18         0.8845    0.1717   -1.5934 H         1 <0>         0.0000
     42 H19         2.2416   -0.6802   -1.2969 H         1 <0>         0.0000
     43 H20         2.9356   -1.9607    5.2985 H         1 <0>         0.0000
     44 H21         3.6858   -0.1599    3.4266 H         1 <0>         0.0000
     45 H22         2.7041   -2.3378    0.6655 H         1 <0>         0.0000
@<TRIPOS>BOND
     1    1    2 ar
     2    1    3 ar
     3    2    5 ar
     4    3    6 ar
     5    4    5 ar
     6    4    6 ar
     7    5    7 1
     8    6   23 1
     9    7   17 am
    10    7   19 2
    11    8   13 1
    12    8   18 am
    13    8   20 2
    14    9   15 1
    15   10   15 1
    16   11   12 1
    17   11   14 1
    18   12   22 1
    19   13   14 1
    20   13   21 1
    21   14   16 1
    22   15   22 1
    23   17   18 1
    24    1   24 1
    25    2   25 1
    26    3   26 1
    27    4   27 1
    28    9   28 1
    29    9   29 1
    30    9   30 1
    31   10   31 1
    32   10   32 1
    33   10   33 1
    34   11   34 1
    35   11   35 1
    36   12   36 1
    37   12   37 1
    38   13   38 1
    39   14   39 1
    40   15   40 1
    41   16   41 1
    42   16   42 1
    43   17   43 1
    44   18   44 1
    45   21   45 1
@<TRIPOS>MOLECULE
LIGAND
   45    45     0     0     0
SMALL
NO_CHARGES

@<TRIPOS>ATOM
      1 C1         -0.2959   -1.7283    8.4655 C.ar      1 <0>         0.0000
      2 C2          0.0807   -1.4558    7.1504 C.ar      1 <0>         0.0000
      3 C3         -1.6473   -1.8121    8.8008 C.ar      1 <0>         0.0000
      4 C4         -2.2454   -1.3505    6.5060 C.ar      1 <0>         0.0000
      5 C5         -0.8940   -1.2668    6.1707 C.ar      1 <0>         0.0000
      6 C6         -2.6221   -1.6232    7.8211 C.ar      1 <0>         0.0000
      7 C7         -0.4919   -0.9759    4.7701 C.2       1 <0>         0.0000
      8 C8          1.9325   -1.0133    2.6768 C.2       1 <0>         0.0000
      9 C9          0.2249   -1.3614   -4.8293 C.3       1 <0>         0.0000
     10 C10         2.4955   -0.4691   -5.4530 C.3       1 <0>         0.0000
     11 C11         1.5761    0.1765   -1.0474 C.3       1 <0>         0.0000
     12 C12         0.4360    0.4372   -2.0380 C.3       1 <0>         0.0000
     13 C13         2.3649   -0.5352    1.2935 C.3       1 <0>         0.0000
     14 C14         1.1534   -0.2750    0.3710 C.3       1 <0>         0.0000
     15 C15         1.4734   -0.6402   -4.3356 C.3       1 <0>         0.0000
     16 N1          0.3597   -1.5080    0.3138 N.3       1 <0>         0.0000
     17 N2          0.7320   -0.3536    4.6161 N.am      1 <0>         0.0000
     18 N3          1.1743   -0.0714    3.3469 N.am      1 <0>         0.0000
     19 O1         -1.2351   -1.3059    3.8493 O.2       1 <0>         0.0000
     20 O2          2.2555   -2.1109    3.1269 O.2       1 <0>         0.0000
     21 O3          3.2186   -1.5159    0.7230 O.3       1 <0>         0.0000
     22 S1          1.0200    0.9781   -3.6711 S.3       1 <0>         0.0000
     23 Cl1        -4.2894   -1.7271    8.2355 Cl        1 <0>         0.0000
     24 H1          0.4631   -1.8757    9.2280 H         1 <0>         0.0000
     25 H2          1.1369   -1.3929    6.9013 H         1 <0>         0.0000
     26 H3         -1.9258   -2.0251    9.8297 H         1 <0>         0.0000
     27 H4         -3.0036   -1.2033    5.7395 H         1 <0>         0.0000
     28 H5         -0.2418   -0.7988   -5.6457 H         1 <0>         0.0000
     29 H6          0.4667   -2.3574   -5.2167 H         1 <0>         0.0000
     30 H7         -0.5235   -1.4725   -4.0365 H         1 <0>         0.0000
     31 H8          2.0637    0.1071   -6.2789 H         1 <0>         0.0000
     32 H9          2.8077   -1.4375   -5.8596 H         1 <0>         0.0000
     33 H10         3.3894    0.0650   -5.1112 H         1 <0>         0.0000
     34 H11         2.1631    1.1018   -0.9736 H         1 <0>         0.0000
     35 H12         2.2520   -0.5707   -1.4824 H         1 <0>         0.0000
     36 H13        -0.2073    1.2295   -1.6408 H         1 <0>         0.0000
     37 H14        -0.1907   -0.4501   -2.1649 H         1 <0>         0.0000
     38 H15         2.9484    0.3859    1.4229 H         1 <0>         0.0000
     39 H16         0.5249    0.4957    0.8291 H         1 <0>         0.0000
     40 H17         1.9240   -1.2177   -3.5214 H         1 <0>         0.0000
     41 H18        -0.4842   -1.3249   -0.2178 H         1 <0>         0.0000
     42 H19         0.0690   -1.7492    1.2550 H         1 <0>         0.0000
     43 H20         1.2931   -0.1098    5.4249 H         1 <0>         0.0000
     44 H21         0.9480    0.8148    2.9078 H         1 <0>         0.0000
     45 H22         2.7041   -2.3378    0.6655 H         1 <0>         0.0000
@<TRIPOS>BOND
     1    1    2 ar
     2    1    3 ar
     3    2    5 ar
     4    3    6 ar
     5    4    5 ar
     6    4    6 ar
     7    5    7 1
     8    6   23 1
     9    7   17 am
    10    7   19 2
    11    8   13 1
    12    8   18 am
    13    8   20 2
    14    9   15 1
    15   10   15 1
    16   11   12 1
    17   11   14 1
    18   12   22 1
    19   13   14 1
    20   13   21 1
    21   14   16 1
    22   15   22 1
    23   17   18 1
    24    1   24 1
    25    2   25 1
    26    3   26 1
    27    4   27 1
    28    9   28 1
    29    9   29 1
    30    9   30 1
    31   10   31 1
    32   10   32 1
    33   10   33 1
    34   11   34 1
    35   11   35 1
    36   12   36 1
    37   12   37 1
    38   13   38 1
    39   14   39 1
    40   15   40 1
    41   16   41 1
    42   16   42 1
    43   17   43 1
    44   18   44 1
    45   21   45 1
@<TRIPOS>MOLECULE
LIGAND
   45    45     0     0     0
SMALL
NO_CHARGES

@<TRIPOS>ATOM
      1 C1         -2.0859    0.3620    8.4478 C.ar      1 <0>         0.0000
      2 C2         -1.6873    0.7057    7.1561 C.ar      1 <0>         0.0000
      3 C3         -1.6782   -0.8505    9.0041 C.ar      1 <0>         0.0000
      4 C4         -0.4734   -1.3755    6.9768 C.ar      1 <0>         0.0000
      5 C5         -0.8811   -0.1631    6.4206 C.ar      1 <0>         0.0000
      6 C6         -0.8720   -1.7192    8.2686 C.ar      1 <0>         0.0000
      7 C7         -0.4576    0.2036    5.0443 C.2       1 <0>         0.0000
      8 C8          1.9325   -1.0133    2.6768 C.2       1 <0>         0.0000
      9 C9         -0.7661    4.0842   -1.5067 C.3       1 <0>         0.0000
     10 C10         1.2631    3.9522   -2.9918 C.3       1 <0>         0.0000
     11 C11         1.5761    0.1765   -1.0474 C.3       1 <0>         0.0000
     12 C12         2.3784    1.4800   -1.1273 C.3       1 <0>         0.0000
     13 C13         2.3649   -0.5352    1.2935 C.3       1 <0>         0.0000
     14 C14         1.1534   -0.2750    0.3710 C.3       1 <0>         0.0000
     15 C15         0.4393    3.2484   -1.9202 C.3       1 <0>         0.0000
     16 N1          0.3597   -1.5080    0.3138 N.3       1 <0>         0.0000
     17 N2          0.7320   -0.3536    4.6161 N.am      1 <0>         0.0000
     18 N3          1.1743   -0.0714    3.3469 N.am      1 <0>         0.0000
     19 O1         -1.1696    0.9461    4.3728 O.2       1 <0>         0.0000
     20 O2          2.2555   -2.1109    3.1269 O.2       1 <0>         0.0000
     21 O3          3.2186   -1.5159    0.7230 O.3       1 <0>         0.0000
     22 S1          1.4741    2.9151   -0.4766 S.3       1 <0>         0.0000
     23 Cl1        -0.3688   -3.2149    8.9559 Cl        1 <0>         0.0000
     24 H1         -2.7133    1.0387    9.0204 H         1 <0>         0.0000
     25 H2         -2.0115    1.6532    6.7333 H         1 <0>         0.0000
     26 H3         -1.9966   -1.1048   10.0118 H         1 <0>         0.0000
     27 H4          0.1559   -2.0511    6.4010 H         1 <0>         0.0000
     28 H5         -0.4402    5.0542   -1.1149 H         1 <0>         0.0000
     29 H6         -1.4254    4.2821   -2.3592 H         1 <0>         0.0000
     30 H7         -1.3544    3.5937   -0.7229 H         1 <0>         0.0000
     31 H8          1.6202    4.9203   -2.6228 H         1 <0>         0.0000
     32 H9          0.6667    4.1459   -3.8903 H         1 <0>         0.0000
     33 H10         2.1426    3.3661   -3.2821 H         1 <0>         0.0000
     34 H11         2.1843   -0.6108   -1.5125 H         1 <0>         0.0000
     35 H12         0.6847    0.2765   -1.6798 H         1 <0>         0.0000
     36 H13         2.6151    1.6893   -2.1758 H         1 <0>         0.0000
     37 H14         3.3304    1.3937   -0.5957 H         1 <0>         0.0000
     38 H15         2.9484    0.3859    1.4229 H         1 <0>         0.0000
     39 H16         0.5249    0.4957    0.8291 H         1 <0>         0.0000
     40 H17         0.0926    2.2847   -2.3082 H         1 <0>         0.0000
     41 H18        -0.4842   -1.3249   -0.2178 H         1 <0>         0.0000
     42 H19         0.0690   -1.7492    1.2550 H         1 <0>         0.0000
     43 H20         1.2684   -0.9594    5.2274 H         1 <0>         0.0000
     44 H21         0.9480    0.8148    2.9078 H         1 <0>         0.0000
     45 H22         2.7041   -2.3378    0.6655 H         1 <0>         0.0000
@<TRIPOS>BOND
     1    1    2 ar
     2    1    3 ar
     3    2    5 ar
     4    3    6 ar
     5    4    5 ar
     6    4    6 ar
     7    5    7 1
     8    6   23 1
     9    7   17 am
    10    7   19 2
    11    8   13 1
    12    8   18 am
    13    8   20 2
    14    9   15 1
    15   10   15 1
    16   11   12 1
    17   11   14 1
    18   12   22 1
    19   13   14 1
    20   13   21 1
    21   14   16 1
    22   15   22 1
    23   17   18 1
    24    1   24 1
    25    2   25 1
    26    3   26 1
    27    4   27 1
    28    9   28 1
    29    9   29 1
    30    9   30 1
    31   10   31 1
    32   10   32 1
    33   10   33 1
    34   11   34 1
    35   11   35 1
    36   12   36 1
    37   12   37 1
    38   13   38 1
    39   14   39 1
    40   15   40 1
    41   16   41 1
    42   16   42 1
    43   17   43 1
    44   18   44 1
    45   21   45 1
@<TRIPOS>MOLECULE
LIGAND
   45    45     0     0     0
SMALL
NO_CHARGES

@<TRIPOS>ATOM
      1 C1         -2.1901   -5.6246    6.3015 C.ar      1 <0>         0.0000
      2 C2         -1.7709   -5.0911    5.0828 C.ar      1 <0>         0.0000
      3 C3         -1.7948   -5.0260    7.4978 C.ar      1 <0>         0.0000
      4 C4         -0.5609   -3.3604    6.2567 C.ar      1 <0>         0.0000
      5 C5         -0.9563   -3.9590    5.0604 C.ar      1 <0>         0.0000
      6 C6         -0.9802   -3.8940    7.4754 C.ar      1 <0>         0.0000
      7 C7         -0.5097   -3.3917    3.7617 C.2       1 <0>         0.0000
      8 C8          1.9325   -1.0133    2.6768 C.2       1 <0>         0.0000
      9 C9         -4.1299   -0.4675   -2.0276 C.3       1 <0>         0.0000
     10 C10        -4.2566    1.4118   -0.3565 C.3       1 <0>         0.0000
     11 C11         0.2195    0.8307    0.9188 C.3       1 <0>         0.0000
     12 C12        -1.0001    1.1700    0.0549 C.3       1 <0>         0.0000
     13 C13         2.3649   -0.5352    1.2935 C.3       1 <0>         0.0000
     14 C14         1.1534   -0.2750    0.3710 C.3       1 <0>         0.0000
     15 C15        -3.3416    0.5718   -1.2395 C.3       1 <0>         0.0000
     16 N1          1.6681    0.0834   -0.9557 N.3       1 <0>         0.0000
     17 N2          0.6851   -2.6985    3.7909 N.am      1 <0>         0.0000
     18 N3          1.1665   -2.1628    2.6216 N.am      1 <0>         0.0000
     19 O1         -1.1937   -3.5743    2.7577 O.2       1 <0>         0.0000
     20 O2          2.2299   -0.4108    3.7066 O.2       1 <0>         0.0000
     21 O3          3.2186   -1.5159    0.7230 O.3       1 <0>         0.0000
     22 S1         -2.0977   -0.2515   -0.2193 S.3       1 <0>         0.0000
     23 Cl1        -0.4932   -3.1556    8.9519 Cl        1 <0>         0.0000
     24 H1         -2.8246   -6.5059    6.3187 H         1 <0>         0.0000
     25 H2         -2.0854   -5.5665    4.1572 H         1 <0>         0.0000
     26 H3         -2.1292   -5.4530    8.4398 H         1 <0>         0.0000
     27 H4          0.0741   -2.4771    6.2361 H         1 <0>         0.0000
     28 H5         -4.6663   -1.1363   -1.3453 H         1 <0>         0.0000
     29 H6         -4.8772    0.0053   -2.6747 H         1 <0>         0.0000
     30 H7         -3.4774   -1.0886   -2.6519 H         1 <0>         0.0000
     31 H8         -4.7949    0.7719    0.3515 H         1 <0>         0.0000
     32 H9         -5.0077    1.9429   -0.9517 H         1 <0>         0.0000
     33 H10        -3.6957    2.1500    0.2280 H         1 <0>         0.0000
     34 H11        -0.1531    0.5335    1.9082 H         1 <0>         0.0000
     35 H12         0.7975    1.7493    1.0822 H         1 <0>         0.0000
     36 H13        -0.6573    1.5138   -0.9268 H         1 <0>         0.0000
     37 H14        -1.5832    1.9849    0.4933 H         1 <0>         0.0000
     38 H15         2.9484    0.3859    1.4229 H         1 <0>         0.0000
     39 H16         0.5915   -1.2082    0.2610 H         1 <0>         0.0000
     40 H17        -2.8138    1.2291   -1.9386 H         1 <0>         0.0000
     41 H18         0.8845    0.1717   -1.5934 H         1 <0>         0.0000
     42 H19         2.2416   -0.6802   -1.2969 H         1 <0>         0.0000
     43 H20         1.1968   -2.5873    4.6594 H         1 <0>         0.0000
     44 H21         0.9630   -2.6038    1.7309 H         1 <0>         0.0000
     45 H22         2.7041   -2.3378    0.6655 H         1 <0>         0.0000
@<TRIPOS>BOND
     1    1    2 ar
     2    1    3 ar
     3    2    5 ar
     4    3    6 ar
     5    4    5 ar
     6    4    6 ar
     7    5    7 1
     8    6   23 1
     9    7   17 am
    10    7   19 2
    11    8   13 1
    12    8   18 am
    13    8   20 2
    14    9   15 1
    15   10   15 1
    16   11   12 1
    17   11   14 1
    18   12   22 1
    19   13   14 1
    20   13   21 1
    21   14   16 1
    22   15   22 1
    23   17   18 1
    24    1   24 1
    25    2   25 1
    26    3   26 1
    27    4   27 1
    28    9   28 1
    29    9   29 1
    30    9   30 1
    31   10   31 1
    32   10   32 1
    33   10   33 1
    34   11   34 1
    35   11   35 1
    36   12   36 1
    37   12   37 1
    38   13   38 1
    39   14   39 1
    40   15   40 1
    41   16   41 1
    42   16   42 1
    43   17   43 1
    44   18   44 1
    45   21   45 1
@<TRIPOS>MOLECULE
LIGAND
   45    45     0     0     0
SMALL
NO_CHARGES

@<TRIPOS>ATOM
      1 C1          0.8920   -0.9768    8.9998 C.ar      1 <0>         0.0000
      2 C2          1.2615   -0.6374    7.6984 C.ar      1 <0>         0.0000
      3 C3          1.8715   -1.1910    9.9696 C.ar      1 <0>         0.0000
      4 C4          3.5901   -0.7266    8.3363 C.ar      1 <0>         0.0000
      5 C5          2.6105   -0.5124    7.3666 C.ar      1 <0>         0.0000
      6 C6          3.2205   -1.0660    9.6378 C.ar      1 <0>         0.0000
      7 C7          3.0033   -0.1514    5.9797 C.2       1 <0>         0.0000
      8 C8          1.9325   -1.0133    2.6768 C.2       1 <0>         0.0000
      9 C9          0.0327    2.2317    5.0129 C.3       1 <0>         0.0000
     10 C10        -2.4052    1.6484    4.7751 C.3       1 <0>         0.0000
     11 C11        -0.0095    0.4324    1.1072 C.3       1 <0>         0.0000
     12 C12         0.3168    1.7958    1.7266 C.3       1 <0>         0.0000
     13 C13         2.3649   -0.5352    1.2935 C.3       1 <0>         0.0000
     14 C14         1.1534   -0.2750    0.3710 C.3       1 <0>         0.0000
     15 C15        -1.0363    1.6350    4.1054 C.3       1 <0>         0.0000
     16 N1          1.6190    0.5274   -0.7660 N.3       1 <0>         0.0000
     17 N2          2.1084   -0.5131    4.9911 N.am      1 <0>         0.0000
     18 N3          2.3999   -0.1941    3.6876 N.am      1 <0>         0.0000
     19 O1          4.0607    0.4441    5.7889 O.2       1 <0>         0.0000
     20 O2          1.2610   -2.0296    2.8442 O.2       1 <0>         0.0000
     21 O3          3.2186   -1.5159    0.7230 O.3       1 <0>         0.0000
     22 S1         -1.1069    2.5617    2.5555 S.3       1 <0>         0.0000
     23 Cl1         4.4286   -1.3300   10.8350 Cl        1 <0>         0.0000
     24 H1         -0.1584   -1.0737    9.2581 H         1 <0>         0.0000
     25 H2          0.4891   -0.4730    6.9514 H         1 <0>         0.0000
     26 H3          1.5685   -1.4548   10.9795 H         1 <0>         0.0000
     27 H4          4.6417   -0.6279    8.0747 H         1 <0>         0.0000
     28 H5         -0.2200    3.2666    5.2693 H         1 <0>         0.0000
     29 H6          0.1147    1.6741    5.9526 H         1 <0>         0.0000
     30 H7          1.0175    2.2430    4.5321 H         1 <0>         0.0000
     31 H8         -2.6954    2.6743    5.0278 H         1 <0>         0.0000
     32 H9         -2.3988    1.0726    5.7073 H         1 <0>         0.0000
     33 H10        -3.1838    1.2376    4.1222 H         1 <0>         0.0000
     34 H11        -0.8436    0.5818    0.4085 H         1 <0>         0.0000
     35 H12        -0.3964   -0.2253    1.8961 H         1 <0>         0.0000
     36 H13         0.6415    2.4788    0.9344 H         1 <0>         0.0000
     37 H14         1.1411    1.7204    2.4415 H         1 <0>         0.0000
     38 H15         2.9484    0.3859    1.4229 H         1 <0>         0.0000
     39 H16         0.8058   -1.2336   -0.0276 H         1 <0>         0.0000
     40 H17        -0.7654    0.6023    3.8614 H         1 <0>         0.0000
     41 H18         0.8536    0.6316   -1.4231 H         1 <0>         0.0000
     42 H19         2.3513    0.0146   -1.2450 H         1 <0>         0.0000
     43 H20         1.2525   -1.0048    5.2237 H         1 <0>         0.0000
     44 H21         2.9499    0.6302    3.4697 H         1 <0>         0.0000
     45 H22         2.7041   -2.3378    0.6655 H         1 <0>         0.0000
@<TRIPOS>BOND
     1    1    2 ar
     2    1    3 ar
     3    2    5 ar
     4    3    6 ar
     5    4    5 ar
     6    4    6 ar
     7    5    7 1
     8    6   23 1
     9    7   17 am
    10    7   19 2
    11    8   13 1
    12    8   18 am
    13    8   20 2
    14    9   15 1
    15   10   15 1
    16   11   12 1
    17   11   14 1
    18   12   22 1
    19   13   14 1
    20   13   21 1
    21   14   16 1
    22   15   22 1
    23   17   18 1
    24    1   24 1
    25    2   25 1
    26    3   26 1
    27    4   27 1
    28    9   28 1
    29    9   29 1
    30    9   30 1
    31   10   31 1
    32   10   32 1
    33   10   33 1
    34   11   34 1
    35   11   35 1
    36   12   36 1
    37   12   37 1
    38   13   38 1
    39   14   39 1
    40   15   40 1
    41   16   41 1
    42   16   42 1
    43   17   43 1
    44   18   44 1
    45   21   45 1
@<TRIPOS>MOLECULE
LIGAND
   45    45     0     0     0
SMALL
NO_CHARGES

@<TRIPOS>ATOM
      1 C1         -0.1499   -1.3211    8.6227 C.ar      1 <0>         0.0000
      2 C2          0.3178   -0.9633    7.3583 C.ar      1 <0>         0.0000
      3 C3         -0.8824   -0.4069    9.3799 C.ar      1 <0>         0.0000
      4 C4         -0.6792    1.2232    7.6083 C.ar      1 <0>         0.0000
      5 C5          0.0532    0.3088    6.8511 C.ar      1 <0>         0.0000
      6 C6         -1.1470    0.8653    8.8727 C.ar      1 <0>         0.0000
      7 C7          0.5524    0.6894    5.5043 C.2       1 <0>         0.0000
      8 C8          1.9325   -1.0133    2.6768 C.2       1 <0>         0.0000
      9 C9          2.4151    5.4477   -0.0931 C.3       1 <0>         0.0000
     10 C10         3.6045    3.5739    1.0963 C.3       1 <0>         0.0000
     11 C11         1.5761    0.1765   -1.0474 C.3       1 <0>         0.0000
     12 C12         2.3784    1.4800   -1.1273 C.3       1 <0>         0.0000
     13 C13         2.3649   -0.5352    1.2935 C.3       1 <0>         0.0000
     14 C14         1.1534   -0.2750    0.3710 C.3       1 <0>         0.0000
     15 C15         2.8874    4.0013   -0.1787 C.3       1 <0>         0.0000
     16 N1          0.3597   -1.5080    0.3138 N.3       1 <0>         0.0000
     17 N2          0.7320   -0.3536    4.6161 N.am      1 <0>         0.0000
     18 N3          1.1743   -0.0714    3.3469 N.am      1 <0>         0.0000
     19 O1          0.7587    1.8736    5.2510 O.2       1 <0>         0.0000
     20 O2          2.2555   -2.1109    3.1269 O.2       1 <0>         0.0000
     21 O3          3.2186   -1.5159    0.7230 O.3       1 <0>         0.0000
     22 S1          1.4741    2.9151   -0.4766 S.3       1 <0>         0.0000
     23 Cl1        -2.0512    1.9928    9.8074 Cl        1 <0>         0.0000
     24 H1          0.0559   -2.3118    9.0173 H         1 <0>         0.0000
     25 H2          0.8875   -1.6844    6.7777 H         1 <0>         0.0000
     26 H3         -1.2404   -0.6998   10.3635 H         1 <0>         0.0000
     27 H4         -0.8846    2.2147    7.2098 H         1 <0>         0.0000
     28 H5          1.7293    5.5747    0.7520 H         1 <0>         0.0000
     29 H6          3.2556    6.1330    0.0636 H         1 <0>         0.0000
     30 H7          1.8820    5.7580   -0.9990 H         1 <0>         0.0000
     31 H8          2.9369    3.6722    1.9597 H         1 <0>         0.0000
     32 H9          4.4819    4.2010    1.2898 H         1 <0>         0.0000
     33 H10         3.9317    2.5289    1.0507 H         1 <0>         0.0000
     34 H11         2.1843   -0.6108   -1.5125 H         1 <0>         0.0000
     35 H12         0.6847    0.2765   -1.6798 H         1 <0>         0.0000
     36 H13         2.6151    1.6893   -2.1758 H         1 <0>         0.0000
     37 H14         3.3304    1.3937   -0.5957 H         1 <0>         0.0000
     38 H15         2.9484    0.3859    1.4229 H         1 <0>         0.0000
     39 H16         0.5249    0.4957    0.8291 H         1 <0>         0.0000
     40 H17         3.5706    3.8957   -1.0281 H         1 <0>         0.0000
     41 H18        -0.4842   -1.3249   -0.2178 H         1 <0>         0.0000
     42 H19         0.0690   -1.7492    1.2550 H         1 <0>         0.0000
     43 H20         0.5409   -1.3094    4.8961 H         1 <0>         0.0000
     44 H21         0.9480    0.8148    2.9078 H         1 <0>         0.0000
     45 H22         2.7041   -2.3378    0.6655 H         1 <0>         0.0000
@<TRIPOS>BOND
     1    1    2 ar
     2    1    3 ar
     3    2    5 ar
     4    3    6 ar
     5    4    5 ar
     6    4    6 ar
     7    5    7 1
     8    6   23 1
     9    7   17 am
    10    7   19 2
    11    8   13 1
    12    8   18 am
    13    8   20 2
    14    9   15 1
    15   10   15 1
    16   11   12 1
    17   11   14 1
    18   12   22 1
    19   13   14 1
    20   13   21 1
    21   14   16 1
    22   15   22 1
    23   17   18 1
    24    1   24 1
    25    2   25 1
    26    3   26 1
    27    4   27 1
    28    9   28 1
    29    9   29 1
    30    9   30 1
    31   10   31 1
    32   10   32 1
    33   10   33 1
    34   11   34 1
    35   11   35 1
    36   12   36 1
    37   12   37 1
    38   13   38 1
    39   14   39 1
    40   15   40 1
    41   16   41 1
    42   16   42 1
    43   17   43 1
    44   18   44 1
    45   21   45 1
@<TRIPOS>MOLECULE
LIGAND
   45    45     0     0     0
SMALL
NO_CHARGES

@<TRIPOS>ATOM
      1 C1         -1.1840   -1.2026    8.2729 C.ar      1 <0>         0.0000
      2 C2         -0.7155   -0.8444    7.0089 C.ar      1 <0>         0.0000
      3 C3         -0.8839   -0.4077    9.3791 C.ar      1 <0>         0.0000
      4 C4          0.3533    1.1038    7.9573 C.ar      1 <0>         0.0000
      5 C5          0.0532    0.3088    6.8511 C.ar      1 <0>         0.0000
      6 C6         -0.1152    0.7455    9.2213 C.ar      1 <0>         0.0000
      7 C7          0.5524    0.6894    5.5043 C.2       1 <0>         0.0000
      8 C8          1.9325   -1.0133    2.6768 C.2       1 <0>         0.0000
      9 C9          2.4151    5.4477   -0.0931 C.3       1 <0>         0.0000
     10 C10         3.6045    3.5739    1.0963 C.3       1 <0>         0.0000
     11 C11         1.5761    0.1765   -1.0474 C.3       1 <0>         0.0000
     12 C12         2.3784    1.4800   -1.1273 C.3       1 <0>         0.0000
     13 C13         2.3649   -0.5352    1.2935 C.3       1 <0>         0.0000
     14 C14         1.1534   -0.2750    0.3710 C.3       1 <0>         0.0000
     15 C15         2.8874    4.0013   -0.1787 C.3       1 <0>         0.0000
     16 N1          0.3597   -1.5080    0.3138 N.3       1 <0>         0.0000
     17 N2          0.7320   -0.3536    4.6161 N.am      1 <0>         0.0000
     18 N3          1.1743   -0.0714    3.3469 N.am      1 <0>         0.0000
     19 O1          0.7587    1.8736    5.2510 O.2       1 <0>         0.0000
     20 O2          2.2555   -2.1109    3.1269 O.2       1 <0>         0.0000
     21 O3          3.2186   -1.5159    0.7230 O.3       1 <0>         0.0000
     22 S1          1.4741    2.9151   -0.4766 S.3       1 <0>         0.0000
     23 Cl1         0.2544    1.7262   10.5866 Cl        1 <0>         0.0000
     24 H1         -1.7827   -2.1003    8.3955 H         1 <0>         0.0000
     25 H2         -0.9559   -1.4719    6.1545 H         1 <0>         0.0000
     26 H3         -1.2558   -0.6995   10.3579 H         1 <0>         0.0000
     27 H4          0.9528    2.0032    7.8311 H         1 <0>         0.0000
     28 H5          1.7293    5.5747    0.7520 H         1 <0>         0.0000
     29 H6          3.2556    6.1330    0.0636 H         1 <0>         0.0000
     30 H7          1.8820    5.7580   -0.9990 H         1 <0>         0.0000
     31 H8          2.9369    3.6722    1.9597 H         1 <0>         0.0000
     32 H9          4.4819    4.2010    1.2898 H         1 <0>         0.0000
     33 H10         3.9317    2.5289    1.0507 H         1 <0>         0.0000
     34 H11         2.1843   -0.6108   -1.5125 H         1 <0>         0.0000
     35 H12         0.6847    0.2765   -1.6798 H         1 <0>         0.0000
     36 H13         2.6151    1.6893   -2.1758 H         1 <0>         0.0000
     37 H14         3.3304    1.3937   -0.5957 H         1 <0>         0.0000
     38 H15         2.9484    0.3859    1.4229 H         1 <0>         0.0000
     39 H16         0.5249    0.4957    0.8291 H         1 <0>         0.0000
     40 H17         3.5706    3.8957   -1.0281 H         1 <0>         0.0000
     41 H18        -0.4842   -1.3249   -0.2178 H         1 <0>         0.0000
     42 H19         0.0690   -1.7492    1.2550 H         1 <0>         0.0000
     43 H20         0.5409   -1.3094    4.8961 H         1 <0>         0.0000
     44 H21         0.9480    0.8148    2.9078 H         1 <0>         0.0000
     45 H22         2.7041   -2.3378    0.6655 H         1 <0>         0.0000
@<TRIPOS>BOND
     1    1    2 ar
     2    1    3 ar
     3    2    5 ar
     4    3    6 ar
     5    4    5 ar
     6    4    6 ar
     7    5    7 1
     8    6   23 1
     9    7   17 am
    10    7   19 2
    11    8   13 1
    12    8   18 am
    13    8   20 2
    14    9   15 1
    15   10   15 1
    16   11   12 1
    17   11   14 1
    18   12   22 1
    19   13   14 1
    20   13   21 1
    21   14   16 1
    22   15   22 1
    23   17   18 1
    24    1   24 1
    25    2   25 1
    26    3   26 1
    27    4   27 1
    28    9   28 1
    29    9   29 1
    30    9   30 1
    31   10   31 1
    32   10   32 1
    33   10   33 1
    34   11   34 1
    35   11   35 1
    36   12   36 1
    37   12   37 1
    38   13   38 1
    39   14   39 1
    40   15   40 1
    41   16   41 1
    42   16   42 1
    43   17   43 1
    44   18   44 1
    45   21   45 1
@<TRIPOS>MOLECULE
LIGAND
   45    45     0     0     0
SMALL
NO_CHARGES

@<TRIPOS>ATOM
      1 C1         -2.8134   -3.6397    6.9542 C.ar      1 <0>         0.0000
      2 C2         -2.3780   -3.0405    5.7723 C.ar      1 <0>         0.0000
      3 C3         -1.8836   -4.1212    7.8758 C.ar      1 <0>         0.0000
      4 C4         -0.0829   -3.4042    6.4334 C.ar      1 <0>         0.0000
      5 C5         -1.0128   -2.9227    5.5119 C.ar      1 <0>         0.0000
      6 C6         -0.5183   -4.0035    7.6154 C.ar      1 <0>         0.0000
      7 C7         -0.5498   -2.2848    4.2523 C.2       1 <0>         0.0000
      8 C8          1.9325   -1.0133    2.6768 C.2       1 <0>         0.0000
      9 C9         -4.0623    0.8550    1.3177 C.3       1 <0>         0.0000
     10 C10        -3.5584   -1.5885    1.6583 C.3       1 <0>         0.0000
     11 C11         0.2195    0.8307    0.9188 C.3       1 <0>         0.0000
     12 C12        -1.0001    1.1700    0.0549 C.3       1 <0>         0.0000
     13 C13         2.3649   -0.5352    1.2935 C.3       1 <0>         0.0000
     14 C14         1.1534   -0.2750    0.3710 C.3       1 <0>         0.0000
     15 C15        -2.9754   -0.2124    1.3599 C.3       1 <0>         0.0000
     16 N1          1.6681    0.0834   -0.9557 N.3       1 <0>         0.0000
     17 N2          0.6851   -2.6985    3.7909 N.am      1 <0>         0.0000
     18 N3          1.1665   -2.1628    2.6216 N.am      1 <0>         0.0000
     19 O1         -1.2703   -1.4609    3.6944 O.2       1 <0>         0.0000
     20 O2          2.2299   -0.4108    3.7066 O.2       1 <0>         0.0000
     21 O3          3.2186   -1.5159    0.7230 O.3       1 <0>         0.0000
     22 S1         -2.0977   -0.2515   -0.2193 S.3       1 <0>         0.0000
     23 Cl1         0.6285   -4.5974    8.7532 Cl        1 <0>         0.0000
     24 H1         -3.8765   -3.7310    7.1569 H         1 <0>         0.0000
     25 H2         -3.1122   -2.6692    5.0619 H         1 <0>         0.0000
     26 H3         -2.2377   -4.5858    8.7924 H         1 <0>         0.0000
     27 H4          0.9816   -3.3106    6.2279 H         1 <0>         0.0000
     28 H5         -4.8019    0.6148    0.5457 H         1 <0>         0.0000
     29 H6         -4.5966    0.9180    2.2722 H         1 <0>         0.0000
     30 H7         -3.6542    1.8453    1.0855 H         1 <0>         0.0000
     31 H8         -4.2902   -1.8663    0.8915 H         1 <0>         0.0000
     32 H9         -4.0769   -1.6012    2.6234 H         1 <0>         0.0000
     33 H10        -2.7856   -2.3656    1.6725 H         1 <0>         0.0000
     34 H11        -0.1531    0.5335    1.9082 H         1 <0>         0.0000
     35 H12         0.7975    1.7493    1.0822 H         1 <0>         0.0000
     36 H13        -0.6573    1.5138   -0.9268 H         1 <0>         0.0000
     37 H14        -1.5832    1.9849    0.4933 H         1 <0>         0.0000
     38 H15         2.9484    0.3859    1.4229 H         1 <0>         0.0000
     39 H16         0.5915   -1.2082    0.2610 H         1 <0>         0.0000
     40 H17        -2.2476    0.0460    2.1366 H         1 <0>         0.0000
     41 H18         0.8845    0.1717   -1.5934 H         1 <0>         0.0000
     42 H19         2.2416   -0.6802   -1.2969 H         1 <0>         0.0000
     43 H20         1.2257   -3.3847    4.3060 H         1 <0>         0.0000
     44 H21         0.9630   -2.6038    1.7309 H         1 <0>         0.0000
     45 H22         2.7041   -2.3378    0.6655 H         1 <0>         0.0000
@<TRIPOS>BOND
     1    1    2 ar
     2    1    3 ar
     3    2    5 ar
     4    3    6 ar
     5    4    5 ar
     6    4    6 ar
     7    5    7 1
     8    6   23 1
     9    7   17 am
    10    7   19 2
    11    8   13 1
    12    8   18 am
    13    8   20 2
    14    9   15 1
    15   10   15 1
    16   11   12 1
    17   11   14 1
    18   12   22 1
    19   13   14 1
    20   13   21 1
    21   14   16 1
    22   15   22 1
    23   17   18 1
    24    1   24 1
    25    2   25 1
    26    3   26 1
    27    4   27 1
    28    9   28 1
    29    9   29 1
    30    9   30 1
    31   10   31 1
    32   10   32 1
    33   10   33 1
    34   11   34 1
    35   11   35 1
    36   12   36 1
    37   12   37 1
    38   13   38 1
    39   14   39 1
    40   15   40 1
    41   16   41 1
    42   16   42 1
    43   17   43 1
    44   18   44 1
    45   21   45 1
@<TRIPOS>MOLECULE
LIGAND
   45    45     0     0     0
SMALL
NO_CHARGES

@<TRIPOS>ATOM
      1 C1          3.2536   -2.1742    9.3571 C.ar      1 <0>         0.0000
      2 C2          3.6014   -1.9073    8.0329 C.ar      1 <0>         0.0000
      3 C3          1.9142   -2.1456    9.7457 C.ar      1 <0>         0.0000
      4 C4          1.2706   -1.5830    7.4860 C.ar      1 <0>         0.0000
      5 C5          2.6100   -1.6117    7.0974 C.ar      1 <0>         0.0000
      6 C6          0.9227   -1.8500    8.8101 C.ar      1 <0>         0.0000
      7 C7          2.9815   -1.3268    5.6872 C.2       1 <0>         0.0000
      8 C8          1.9325   -1.0133    2.6768 C.2       1 <0>         0.0000
      9 C9          1.4564    5.4762    1.2996 C.3       1 <0>         0.0000
     10 C10         0.2261    5.4824    3.4965 C.3       1 <0>         0.0000
     11 C11         0.2195    0.8307    0.9188 C.3       1 <0>         0.0000
     12 C12         0.8590    2.2074    1.1305 C.3       1 <0>         0.0000
     13 C13         2.3649   -0.5352    1.2935 C.3       1 <0>         0.0000
     14 C14         1.1534   -0.2750    0.3710 C.3       1 <0>         0.0000
     15 C15         0.8895    4.6225    2.4275 C.3       1 <0>         0.0000
     16 N1          1.6681    0.0834   -0.9557 N.3       1 <0>         0.0000
     17 N2          2.1084   -0.5131    4.9911 N.am      1 <0>         0.0000
     18 N3          2.3999   -0.1941    3.6876 N.am      1 <0>         0.0000
     19 O1          4.0191   -1.8000    5.2304 O.2       1 <0>         0.0000
     20 O2          1.2610   -2.0296    2.8442 O.2       1 <0>         0.0000
     21 O3          3.2186   -1.5159    0.7230 O.3       1 <0>         0.0000
     22 S1         -0.3102    3.4478    1.7590 S.3       1 <0>         0.0000
     23 Cl1        -0.7298   -1.8153    9.2902 Cl        1 <0>         0.0000
     24 H1          4.0256   -2.4047   10.0852 H         1 <0>         0.0000
     25 H2          4.6485   -1.9325    7.7422 H         1 <0>         0.0000
     26 H3          1.6582   -2.3557   10.7809 H         1 <0>         0.0000
     27 H4          0.4992   -1.3526    6.7539 H         1 <0>         0.0000
     28 H5          0.6599    6.0638    0.8297 H         1 <0>         0.0000
     29 H6          2.2059    6.1832    1.6727 H         1 <0>         0.0000
     30 H7          1.9195    4.8646    0.5169 H         1 <0>         0.0000
     31 H8         -0.5894    6.0701    3.0604 H         1 <0>         0.0000
     32 H9          0.9374    6.1894    3.9378 H         1 <0>         0.0000
     33 H10        -0.2008    4.8752    4.3030 H         1 <0>         0.0000
     34 H11        -0.6259    0.9652    0.2307 H         1 <0>         0.0000
     35 H12        -0.2197    0.5004    1.8688 H         1 <0>         0.0000
     36 H13         1.2423    2.5738    0.1722 H         1 <0>         0.0000
     37 H14         1.7108    2.1489    1.8142 H         1 <0>         0.0000
     38 H15         2.9484    0.3859    1.4229 H         1 <0>         0.0000
     39 H16         0.5915   -1.2082    0.2610 H         1 <0>         0.0000
     40 H17         1.7002    4.0441    2.8832 H         1 <0>         0.0000
     41 H18         0.8845    0.1717   -1.5934 H         1 <0>         0.0000
     42 H19         2.2416   -0.6802   -1.2969 H         1 <0>         0.0000
     43 H20         1.2682   -0.1582    5.4344 H         1 <0>         0.0000
     44 H21         2.9499    0.6302    3.4697 H         1 <0>         0.0000
     45 H22         2.7041   -2.3378    0.6655 H         1 <0>         0.0000
@<TRIPOS>BOND
     1    1    2 ar
     2    1    3 ar
     3    2    5 ar
     4    3    6 ar
     5    4    5 ar
     6    4    6 ar
     7    5    7 1
     8    6   23 1
     9    7   17 am
    10    7   19 2
    11    8   13 1
    12    8   18 am
    13    8   20 2
    14    9   15 1
    15   10   15 1
    16   11   12 1
    17   11   14 1
    18   12   22 1
    19   13   14 1
    20   13   21 1
    21   14   16 1
    22   15   22 1
    23   17   18 1
    24    1   24 1
    25    2   25 1
    26    3   26 1
    27    4   27 1
    28    9   28 1
    29    9   29 1
    30    9   30 1
    31   10   31 1
    32   10   32 1
    33   10   33 1
    34   11   34 1
    35   11   35 1
    36   12   36 1
    37   12   37 1
    38   13   38 1
    39   14   39 1
    40   15   40 1
    41   16   41 1
    42   16   42 1
    43   17   43 1
    44   18   44 1
    45   21   45 1
@<TRIPOS>MOLECULE
LIGAND
   45    45     0     0     0
SMALL
NO_CHARGES

@<TRIPOS>ATOM
      1 C1         -2.7350   -4.6966    6.5195 C.ar      1 <0>         0.0000
      2 C2         -2.3150   -4.1636    5.3009 C.ar      1 <0>         0.0000
      3 C3         -1.7964   -5.0251    7.4977 C.ar      1 <0>         0.0000
      4 C4         -0.0177   -4.2875    6.0385 C.ar      1 <0>         0.0000
      5 C5         -0.9563   -3.9590    5.0604 C.ar      1 <0>         0.0000
      6 C6         -0.4377   -4.8206    7.2572 C.ar      1 <0>         0.0000
      7 C7         -0.5097   -3.3917    3.7617 C.2       1 <0>         0.0000
      8 C8          1.9325   -1.0133    2.6768 C.2       1 <0>         0.0000
      9 C9          0.9492    3.5395    4.1781 C.3       1 <0>         0.0000
     10 C10        -1.5671    3.4454    4.1811 C.3       1 <0>         0.0000
     11 C11         0.2195    0.8307    0.9188 C.3       1 <0>         0.0000
     12 C12         0.8590    2.2074    1.1305 C.3       1 <0>         0.0000
     13 C13         2.3649   -0.5352    1.2935 C.3       1 <0>         0.0000
     14 C14         1.1534   -0.2750    0.3710 C.3       1 <0>         0.0000
     15 C15        -0.2901    2.9668    3.5009 C.3       1 <0>         0.0000
     16 N1          1.6681    0.0834   -0.9557 N.3       1 <0>         0.0000
     17 N2          0.6851   -2.6985    3.7909 N.am      1 <0>         0.0000
     18 N3          1.1665   -2.1628    2.6216 N.am      1 <0>         0.0000
     19 O1         -1.1937   -3.5743    2.7577 O.2       1 <0>         0.0000
     20 O2          2.2299   -0.4108    3.7066 O.2       1 <0>         0.0000
     21 O3          3.2186   -1.5159    0.7230 O.3       1 <0>         0.0000
     22 S1         -0.3102    3.4478    1.7590 S.3       1 <0>         0.0000
     23 Cl1         0.7199   -5.2257    8.4648 Cl        1 <0>         0.0000
     24 H1         -3.7929   -4.8555    6.7066 H         1 <0>         0.0000
     25 H2         -3.0558   -3.9116    4.5464 H         1 <0>         0.0000
     26 H3         -2.1385   -5.4397    8.4424 H         1 <0>         0.0000
     27 H4          1.0416   -4.1264    5.8483 H         1 <0>         0.0000
     28 H5          0.9275    4.6347    4.1481 H         1 <0>         0.0000
     29 H6          1.0005    3.2436    5.2319 H         1 <0>         0.0000
     30 H7          1.8721    3.2151    3.6839 H         1 <0>         0.0000
     31 H8         -1.6274    4.5391    4.1512 H         1 <0>         0.0000
     32 H9         -1.5938    3.1464    5.2349 H         1 <0>         0.0000
     33 H10        -2.4642    3.0528    3.6891 H         1 <0>         0.0000
     34 H11        -0.6259    0.9652    0.2307 H         1 <0>         0.0000
     35 H12        -0.2197    0.5004    1.8688 H         1 <0>         0.0000
     36 H13         1.2423    2.5738    0.1722 H         1 <0>         0.0000
     37 H14         1.7108    2.1489    1.8142 H         1 <0>         0.0000
     38 H15         2.9484    0.3859    1.4229 H         1 <0>         0.0000
     39 H16         0.5915   -1.2082    0.2610 H         1 <0>         0.0000
     40 H17        -0.2491    1.8731    3.5416 H         1 <0>         0.0000
     41 H18         0.8845    0.1717   -1.5934 H         1 <0>         0.0000
     42 H19         2.2416   -0.6802   -1.2969 H         1 <0>         0.0000
     43 H20         1.1968   -2.5873    4.6594 H         1 <0>         0.0000
     44 H21         0.9630   -2.6038    1.7309 H         1 <0>         0.0000
     45 H22         2.7041   -2.3378    0.6655 H         1 <0>         0.0000
@<TRIPOS>BOND
     1    1    2 ar
     2    1    3 ar
     3    2    5 ar
     4    3    6 ar
     5    4    5 ar
     6    4    6 ar
     7    5    7 1
     8    6   23 1
     9    7   17 am
    10    7   19 2
    11    8   13 1
    12    8   18 am
    13    8   20 2
    14    9   15 1
    15   10   15 1
    16   11   12 1
    17   11   14 1
    18   12   22 1
    19   13   14 1
    20   13   21 1
    21   14   16 1
    22   15   22 1
    23   17   18 1
    24    1   24 1
    25    2   25 1
    26    3   26 1
    27    4   27 1
    28    9   28 1
    29    9   29 1
    30    9   30 1
    31   10   31 1
    32   10   32 1
    33   10   33 1
    34   11   34 1
    35   11   35 1
    36   12   36 1
    37   12   37 1
    38   13   38 1
    39   14   39 1
    40   15   40 1
    41   16   41 1
    42   16   42 1
    43   17   43 1
    44   18   44 1
    45   21   45 1
@<TRIPOS>MOLECULE
LIGAND
   45    45     0     0     0
SMALL
NO_CHARGES

@<TRIPOS>ATOM
      1 C1          2.6912   -3.0589    9.0302 C.ar      1 <0>         0.0000
      2 C2          3.0390   -2.7910    7.7063 C.ar      1 <0>         0.0000
      3 C3          1.9142   -2.1475    9.7453 C.ar      1 <0>         0.0000
      4 C4          1.8330   -0.7002    7.8125 C.ar      1 <0>         0.0000
      5 C5          2.6100   -1.6117    7.0974 C.ar      1 <0>         0.0000
      6 C6          1.4852   -0.9681    9.1364 C.ar      1 <0>         0.0000
      7 C7          2.9815   -1.3268    5.6872 C.2       1 <0>         0.0000
      8 C8          1.9325   -1.0133    2.6768 C.2       1 <0>         0.0000
      9 C9          1.4564    5.4762    1.2996 C.3       1 <0>         0.0000
     10 C10         0.2261    5.4824    3.4965 C.3       1 <0>         0.0000
     11 C11         0.2195    0.8307    0.9188 C.3       1 <0>         0.0000
     12 C12         0.8590    2.2074    1.1305 C.3       1 <0>         0.0000
     13 C13         2.3649   -0.5352    1.2935 C.3       1 <0>         0.0000
     14 C14         1.1534   -0.2750    0.3710 C.3       1 <0>         0.0000
     15 C15         0.8895    4.6225    2.4275 C.3       1 <0>         0.0000
     16 N1          1.6681    0.0834   -0.9557 N.3       1 <0>         0.0000
     17 N2          2.1084   -0.5131    4.9911 N.am      1 <0>         0.0000
     18 N3          2.3999   -0.1941    3.6876 N.am      1 <0>         0.0000
     19 O1          4.0191   -1.8000    5.2304 O.2       1 <0>         0.0000
     20 O2          1.2610   -2.0296    2.8442 O.2       1 <0>         0.0000
     21 O3          3.2186   -1.5159    0.7230 O.3       1 <0>         0.0000
     22 S1         -0.3102    3.4478    1.7590 S.3       1 <0>         0.0000
     23 Cl1         0.5261    0.1558   10.0192 Cl        1 <0>         0.0000
     24 H1          3.0251   -3.9773    9.5040 H         1 <0>         0.0000
     25 H2          3.6450   -3.5089    7.1594 H         1 <0>         0.0000
     26 H3          1.6510   -2.3697   10.7762 H         1 <0>         0.0000
     27 H4          1.4993    0.2187    7.3347 H         1 <0>         0.0000
     28 H5          0.6599    6.0638    0.8297 H         1 <0>         0.0000
     29 H6          2.2059    6.1832    1.6727 H         1 <0>         0.0000
     30 H7          1.9195    4.8646    0.5169 H         1 <0>         0.0000
     31 H8         -0.5894    6.0701    3.0604 H         1 <0>         0.0000
     32 H9          0.9374    6.1894    3.9378 H         1 <0>         0.0000
     33 H10        -0.2008    4.8752    4.3030 H         1 <0>         0.0000
     34 H11        -0.6259    0.9652    0.2307 H         1 <0>         0.0000
     35 H12        -0.2197    0.5004    1.8688 H         1 <0>         0.0000
     36 H13         1.2423    2.5738    0.1722 H         1 <0>         0.0000
     37 H14         1.7108    2.1489    1.8142 H         1 <0>         0.0000
     38 H15         2.9484    0.3859    1.4229 H         1 <0>         0.0000
     39 H16         0.5915   -1.2082    0.2610 H         1 <0>         0.0000
     40 H17         1.7002    4.0441    2.8832 H         1 <0>         0.0000
     41 H18         0.8845    0.1717   -1.5934 H         1 <0>         0.0000
     42 H19         2.2416   -0.6802   -1.2969 H         1 <0>         0.0000
     43 H20         1.2682   -0.1582    5.4344 H         1 <0>         0.0000
     44 H21         2.9499    0.6302    3.4697 H         1 <0>         0.0000
     45 H22         2.7041   -2.3378    0.6655 H         1 <0>         0.0000
@<TRIPOS>BOND
     1    1    2 ar
     2    1    3 ar
     3    2    5 ar
     4    3    6 ar
     5    4    5 ar
     6    4    6 ar
     7    5    7 1
     8    6   23 1
     9    7   17 am
    10    7   19 2
    11    8   13 1
    12    8   18 am
    13    8   20 2
    14    9   15 1
    15   10   15 1
    16   11   12 1
    17   11   14 1
    18   12   22 1
    19   13   14 1
    20   13   21 1
    21   14   16 1
    22   15   22 1
    23   17   18 1
    24    1   24 1
    25    2   25 1
    26    3   26 1
    27    4   27 1
    28    9   28 1
    29    9   29 1
    30    9   30 1
    31   10   31 1
    32   10   32 1
    33   10   33 1
    34   11   34 1
    35   11   35 1
    36   12   36 1
    37   12   37 1
    38   13   38 1
    39   14   39 1
    40   15   40 1
    41   16   41 1
    42   16   42 1
    43   17   43 1
    44   18   44 1
    45   21   45 1
@<TRIPOS>MOLECULE
LIGAND
   45    45     0     0     0
SMALL
NO_CHARGES

@<TRIPOS>ATOM
      1 C1          2.3084   -2.0825    9.0344 C.ar      1 <0>         0.0000
      2 C2          2.5351   -1.6185    7.7387 C.ar      1 <0>         0.0000
      3 C3          1.1971   -1.6371    9.7503 C.ar      1 <0>         0.0000
      4 C4          0.5395   -0.2636    7.8747 C.ar      1 <0>         0.0000
      5 C5          1.6507   -0.7090    7.1588 C.ar      1 <0>         0.0000
      6 C6          0.3127   -0.7276    9.1704 C.ar      1 <0>         0.0000
      7 C7          1.8934   -0.2148    5.7787 C.2       1 <0>         0.0000
      8 C8          1.9325   -1.0133    2.6768 C.2       1 <0>         0.0000
      9 C9         -3.5456    2.3208    3.0565 C.3       1 <0>         0.0000
     10 C10        -4.0220    0.6377    1.2453 C.3       1 <0>         0.0000
     11 C11         0.2195    0.8307    0.9188 C.3       1 <0>         0.0000
     12 C12        -1.0001    1.1700    0.0549 C.3       1 <0>         0.0000
     13 C13         2.3649   -0.5352    1.2935 C.3       1 <0>         0.0000
     14 C14         1.1534   -0.2750    0.3710 C.3       1 <0>         0.0000
     15 C15        -2.9459    1.4397    1.9673 C.3       1 <0>         0.0000
     16 N1          1.6681    0.0834   -0.9557 N.3       1 <0>         0.0000
     17 N2          2.6023   -1.0670    4.9540 N.am      1 <0>         0.0000
     18 N3          2.8469   -0.6810    3.6590 N.am      1 <0>         0.0000
     19 O1          1.4534    0.8829    5.4461 O.2       1 <0>         0.0000
     20 O2          0.8915   -1.6405    2.8632 O.2       1 <0>         0.0000
     21 O3          3.2186   -1.5159    0.7230 O.3       1 <0>         0.0000
     22 S1         -2.0492    2.4644    0.7791 S.3       1 <0>         0.0000
     23 Cl1        -1.0586   -0.1788   10.0541 Cl        1 <0>         0.0000
     24 H1          2.9969   -2.7909    9.4856 H         1 <0>         0.0000
     25 H2          3.4046   -1.9729    7.1910 H         1 <0>         0.0000
     26 H3          1.0333   -2.0074   10.7590 H         1 <0>         0.0000
     27 H4         -0.1491    0.4455    7.4196 H         1 <0>         0.0000
     28 H5         -4.2705    3.0197    2.6246 H         1 <0>         0.0000
     29 H6         -4.0763    1.7229    3.8059 H         1 <0>         0.0000
     30 H7         -2.7806    2.9152    3.5690 H         1 <0>         0.0000
     31 H8         -4.7543    1.3108    0.7855 H         1 <0>         0.0000
     32 H9         -4.5673   -0.0125    1.9385 H         1 <0>         0.0000
     33 H10        -3.6015    0.0146    0.4477 H         1 <0>         0.0000
     34 H11        -0.1531    0.5335    1.9082 H         1 <0>         0.0000
     35 H12         0.7975    1.7493    1.0822 H         1 <0>         0.0000
     36 H13        -1.6176    0.2727   -0.0585 H         1 <0>         0.0000
     37 H14        -0.7009    1.4813   -0.9501 H         1 <0>         0.0000
     38 H15         2.9484    0.3859    1.4229 H         1 <0>         0.0000
     39 H16         0.5915   -1.2082    0.2610 H         1 <0>         0.0000
     40 H17        -2.2253    0.7496    2.4190 H         1 <0>         0.0000
     41 H18         0.8845    0.1717   -1.5934 H         1 <0>         0.0000
     42 H19         2.2416   -0.6802   -1.2969 H         1 <0>         0.0000
     43 H20         2.9356   -1.9607    5.2985 H         1 <0>         0.0000
     44 H21         3.6858   -0.1599    3.4266 H         1 <0>         0.0000
     45 H22         2.7041   -2.3378    0.6655 H         1 <0>         0.0000
@<TRIPOS>BOND
     1    1    2 ar
     2    1    3 ar
     3    2    5 ar
     4    3    6 ar
     5    4    5 ar
     6    4    6 ar
     7    5    7 1
     8    6   23 1
     9    7   17 am
    10    7   19 2
    11    8   13 1
    12    8   18 am
    13    8   20 2
    14    9   15 1
    15   10   15 1
    16   11   12 1
    17   11   14 1
    18   12   22 1
    19   13   14 1
    20   13   21 1
    21   14   16 1
    22   15   22 1
    23   17   18 1
    24    1   24 1
    25    2   25 1
    26    3   26 1
    27    4   27 1
    28    9   28 1
    29    9   29 1
    30    9   30 1
    31   10   31 1
    32   10   32 1
    33   10   33 1
    34   11   34 1
    35   11   35 1
    36   12   36 1
    37   12   37 1
    38   13   38 1
    39   14   39 1
    40   15   40 1
    41   16   41 1
    42   16   42 1
    43   17   43 1
    44   18   44 1
    45   21   45 1
@<TRIPOS>MOLECULE
LIGAND
   45    45     0     0     0
SMALL
NO_CHARGES

@<TRIPOS>ATOM
      1 C1         -0.4443   -1.6789    8.4406 C.ar      1 <0>         0.0000
      2 C2          0.0752   -1.3786    7.1814 C.ar      1 <0>         0.0000
      3 C3         -0.0644   -0.9236    9.5500 C.ar      1 <0>         0.0000
      4 C4          1.3546    0.4323    8.1411 C.ar      1 <0>         0.0000
      5 C5          0.9746   -0.3231    7.0316 C.ar      1 <0>         0.0000
      6 C6          0.8350    0.1320    9.4003 C.ar      1 <0>         0.0000
      7 C7          1.5280   -0.0043    5.6900 C.2       1 <0>         0.0000
      8 C8          1.9325   -1.0133    2.6768 C.2       1 <0>         0.0000
      9 C9         -0.7661    4.0842   -1.5067 C.3       1 <0>         0.0000
     10 C10         1.2631    3.9522   -2.9918 C.3       1 <0>         0.0000
     11 C11         1.5761    0.1765   -1.0474 C.3       1 <0>         0.0000
     12 C12         2.3784    1.4800   -1.1273 C.3       1 <0>         0.0000
     13 C13         2.3649   -0.5352    1.2935 C.3       1 <0>         0.0000
     14 C14         1.1534   -0.2750    0.3710 C.3       1 <0>         0.0000
     15 C15         0.4393    3.2484   -1.9202 C.3       1 <0>         0.0000
     16 N1          0.3597   -1.5080    0.3138 N.3       1 <0>         0.0000
     17 N2          0.7320   -0.3536    4.6161 N.am      1 <0>         0.0000
     18 N3          1.1743   -0.0714    3.3469 N.am      1 <0>         0.0000
     19 O1          2.6215    0.5492    5.6056 O.2       1 <0>         0.0000
     20 O2          2.2555   -2.1109    3.1269 O.2       1 <0>         0.0000
     21 O3          3.2186   -1.5159    0.7230 O.3       1 <0>         0.0000
     22 S1          1.4741    2.9151   -0.4766 S.3       1 <0>         0.0000
     23 Cl1         1.3030    1.0639   10.7696 Cl        1 <0>         0.0000
     24 H1         -1.1448   -2.5006    8.5569 H         1 <0>         0.0000
     25 H2         -0.2283   -1.9745    6.3244 H         1 <0>         0.0000
     26 H3         -0.4775   -1.1693   10.5250 H         1 <0>         0.0000
     27 H4          2.0560    1.2555    8.0212 H         1 <0>         0.0000
     28 H5         -0.4402    5.0542   -1.1149 H         1 <0>         0.0000
     29 H6         -1.4254    4.2821   -2.3592 H         1 <0>         0.0000
     30 H7         -1.3544    3.5937   -0.7229 H         1 <0>         0.0000
     31 H8          1.6202    4.9203   -2.6228 H         1 <0>         0.0000
     32 H9          0.6667    4.1459   -3.8903 H         1 <0>         0.0000
     33 H10         2.1426    3.3661   -3.2821 H         1 <0>         0.0000
     34 H11         2.1843   -0.6108   -1.5125 H         1 <0>         0.0000
     35 H12         0.6847    0.2765   -1.6798 H         1 <0>         0.0000
     36 H13         2.6151    1.6893   -2.1758 H         1 <0>         0.0000
     37 H14         3.3304    1.3937   -0.5957 H         1 <0>         0.0000
     38 H15         2.9484    0.3859    1.4229 H         1 <0>         0.0000
     39 H16         0.5249    0.4957    0.8291 H         1 <0>         0.0000
     40 H17         0.0926    2.2847   -2.3082 H         1 <0>         0.0000
     41 H18        -0.4842   -1.3249   -0.2178 H         1 <0>         0.0000
     42 H19         0.0690   -1.7492    1.2550 H         1 <0>         0.0000
     43 H20        -0.1619   -0.8097    4.7623 H         1 <0>         0.0000
     44 H21         0.9480    0.8148    2.9078 H         1 <0>         0.0000
     45 H22         2.7041   -2.3378    0.6655 H         1 <0>         0.0000
@<TRIPOS>BOND
     1    1    2 ar
     2    1    3 ar
     3    2    5 ar
     4    3    6 ar
     5    4    5 ar
     6    4    6 ar
     7    5    7 1
     8    6   23 1
     9    7   17 am
    10    7   19 2
    11    8   13 1
    12    8   18 am
    13    8   20 2
    14    9   15 1
    15   10   15 1
    16   11   12 1
    17   11   14 1
    18   12   22 1
    19   13   14 1
    20   13   21 1
    21   14   16 1
    22   15   22 1
    23   17   18 1
    24    1   24 1
    25    2   25 1
    26    3   26 1
    27    4   27 1
    28    9   28 1
    29    9   29 1
    30    9   30 1
    31   10   31 1
    32   10   32 1
    33   10   33 1
    34   11   34 1
    35   11   35 1
    36   12   36 1
    37   12   37 1
    38   13   38 1
    39   14   39 1
    40   15   40 1
    41   16   41 1
    42   16   42 1
    43   17   43 1
    44   18   44 1
    45   21   45 1
@<TRIPOS>MOLECULE
LIGAND
   45    45     0     0     0
SMALL
NO_CHARGES

@<TRIPOS>ATOM
      1 C1          2.2466   -2.5526    8.8826 C.ar      1 <0>         0.0000
      2 C2          2.5475   -2.1101    7.5945 C.ar      1 <0>         0.0000
      3 C3          2.1624   -1.6379    9.9324 C.ar      1 <0>         0.0000
      4 C4          2.6802    0.1617    8.4058 C.ar      1 <0>         0.0000
      5 C5          2.7643   -0.7530    7.3561 C.ar      1 <0>         0.0000
      6 C6          2.3792   -0.2808    9.6940 C.ar      1 <0>         0.0000
      7 C7          3.0854   -0.2826    5.9837 C.2       1 <0>         0.0000
      8 C8          1.9325   -1.0133    2.6768 C.2       1 <0>         0.0000
      9 C9          0.2369    5.9907    2.5840 C.3       1 <0>         0.0000
     10 C10         1.4273    4.1074    3.7571 C.3       1 <0>         0.0000
     11 C11         0.2195    0.8307    0.9188 C.3       1 <0>         0.0000
     12 C12         0.8590    2.2074    1.1305 C.3       1 <0>         0.0000
     13 C13         2.3649   -0.5352    1.2935 C.3       1 <0>         0.0000
     14 C14         1.1534   -0.2750    0.3710 C.3       1 <0>         0.0000
     15 C15         0.8895    4.6225    2.4275 C.3       1 <0>         0.0000
     16 N1          1.6681    0.0834   -0.9557 N.3       1 <0>         0.0000
     17 N2          2.6023   -1.0670    4.9540 N.am      1 <0>         0.0000
     18 N3          2.8469   -0.6810    3.6590 N.am      1 <0>         0.0000
     19 O1          3.7293    0.7533    5.8374 O.2       1 <0>         0.0000
     20 O2          0.8915   -1.6405    2.8632 O.2       1 <0>         0.0000
     21 O3          3.2186   -1.5159    0.7230 O.3       1 <0>         0.0000
     22 S1         -0.3102    3.4478    1.7590 S.3       1 <0>         0.0000
     23 Cl1         2.2747    0.8474   10.9897 Cl        1 <0>         0.0000
     24 H1          2.0776   -3.6092    9.0680 H         1 <0>         0.0000
     25 H2          2.6105   -2.8325    6.7847 H         1 <0>         0.0000
     26 H3          1.9271   -1.9973   10.9308 H         1 <0>         0.0000
     27 H4          2.8492    1.2199    8.2168 H         1 <0>         0.0000
     28 H5         -0.5922    5.9375    3.2984 H         1 <0>         0.0000
     29 H6          0.9490    6.7308    2.9659 H         1 <0>         0.0000
     30 H7         -0.1692    6.3609    1.6357 H         1 <0>         0.0000
     31 H8          0.6165    4.0253    4.4896 H         1 <0>         0.0000
     32 H9          2.1764    4.7890    4.1753 H         1 <0>         0.0000
     33 H10         1.8823    3.1153    3.6574 H         1 <0>         0.0000
     34 H11        -0.6259    0.9652    0.2307 H         1 <0>         0.0000
     35 H12        -0.2197    0.5004    1.8688 H         1 <0>         0.0000
     36 H13         1.2423    2.5738    0.1722 H         1 <0>         0.0000
     37 H14         1.7108    2.1489    1.8142 H         1 <0>         0.0000
     38 H15         2.9484    0.3859    1.4229 H         1 <0>         0.0000
     39 H16         0.5915   -1.2082    0.2610 H         1 <0>         0.0000
     40 H17         1.7141    4.6972    1.7106 H         1 <0>         0.0000
     41 H18         0.8845    0.1717   -1.5934 H         1 <0>         0.0000
     42 H19         2.2416   -0.6802   -1.2969 H         1 <0>         0.0000
     43 H20         2.0769   -1.9119    5.1509 H         1 <0>         0.0000
     44 H21         3.6858   -0.1599    3.4266 H         1 <0>         0.0000
     45 H22         2.7041   -2.3378    0.6655 H         1 <0>         0.0000
@<TRIPOS>BOND
     1    1    2 ar
     2    1    3 ar
     3    2    5 ar
     4    3    6 ar
     5    4    5 ar
     6    4    6 ar
     7    5    7 1
     8    6   23 1
     9    7   17 am
    10    7   19 2
    11    8   13 1
    12    8   18 am
    13    8   20 2
    14    9   15 1
    15   10   15 1
    16   11   12 1
    17   11   14 1
    18   12   22 1
    19   13   14 1
    20   13   21 1
    21   14   16 1
    22   15   22 1
    23   17   18 1
    24    1   24 1
    25    2   25 1
    26    3   26 1
    27    4   27 1
    28    9   28 1
    29    9   29 1
    30    9   30 1
    31   10   31 1
    32   10   32 1
    33   10   33 1
    34   11   34 1
    35   11   35 1
    36   12   36 1
    37   12   37 1
    38   13   38 1
    39   14   39 1
    40   15   40 1
    41   16   41 1
    42   16   42 1
    43   17   43 1
    44   18   44 1
    45   21   45 1
@<TRIPOS>MOLECULE
LIGAND
   45    45     0     0     0
SMALL
NO_CHARGES

@<TRIPOS>ATOM
      1 C1         -1.0489   -4.6607    7.0939 C.ar      1 <0>         0.0000
      2 C2         -0.5063   -4.1726    5.9053 C.ar      1 <0>         0.0000
      3 C3         -0.2082   -5.1260    8.1051 C.ar      1 <0>         0.0000
      4 C4          1.7177   -4.6153    6.7388 C.ar      1 <0>         0.0000
      5 C5          0.8770   -4.1499    5.7277 C.ar      1 <0>         0.0000
      6 C6          1.1751   -5.1033    7.9275 C.ar      1 <0>         0.0000
      7 C7          1.4542   -3.6304    4.4609 C.2       1 <0>         0.0000
      8 C8          1.9325   -1.0133    2.6768 C.2       1 <0>         0.0000
      9 C9          0.9492    3.5395    4.1781 C.3       1 <0>         0.0000
     10 C10        -1.5671    3.4454    4.1811 C.3       1 <0>         0.0000
     11 C11         0.2195    0.8307    0.9188 C.3       1 <0>         0.0000
     12 C12         0.8590    2.2074    1.1305 C.3       1 <0>         0.0000
     13 C13         2.3649   -0.5352    1.2935 C.3       1 <0>         0.0000
     14 C14         1.1534   -0.2750    0.3710 C.3       1 <0>         0.0000
     15 C15        -0.2901    2.9668    3.5009 C.3       1 <0>         0.0000
     16 N1          1.6681    0.0834   -0.9557 N.3       1 <0>         0.0000
     17 N2          0.6851   -2.6985    3.7909 N.am      1 <0>         0.0000
     18 N3          1.1665   -2.1628    2.6216 N.am      1 <0>         0.0000
     19 O1          2.5559   -4.0300    4.0926 O.2       1 <0>         0.0000
     20 O2          2.2299   -0.4108    3.7066 O.2       1 <0>         0.0000
     21 O3          3.2186   -1.5159    0.7230 O.3       1 <0>         0.0000
     22 S1         -0.3102    3.4478    1.7590 S.3       1 <0>         0.0000
     23 Cl1         2.2119   -5.6772    9.1758 Cl        1 <0>         0.0000
     24 H1         -2.1260   -4.6780    7.2321 H         1 <0>         0.0000
     25 H2         -1.1717   -3.8129    5.1246 H         1 <0>         0.0000
     26 H3         -0.6454   -5.5034    9.0259 H         1 <0>         0.0000
     27 H4          2.7965   -4.5959    6.5977 H         1 <0>         0.0000
     28 H5          0.9275    4.6347    4.1481 H         1 <0>         0.0000
     29 H6          1.0005    3.2436    5.2319 H         1 <0>         0.0000
     30 H7          1.8721    3.2151    3.6839 H         1 <0>         0.0000
     31 H8         -1.6274    4.5391    4.1512 H         1 <0>         0.0000
     32 H9         -1.5938    3.1464    5.2349 H         1 <0>         0.0000
     33 H10        -2.4642    3.0528    3.6891 H         1 <0>         0.0000
     34 H11        -0.6259    0.9652    0.2307 H         1 <0>         0.0000
     35 H12        -0.2197    0.5004    1.8688 H         1 <0>         0.0000
     36 H13         1.2423    2.5738    0.1722 H         1 <0>         0.0000
     37 H14         1.7108    2.1489    1.8142 H         1 <0>         0.0000
     38 H15         2.9484    0.3859    1.4229 H         1 <0>         0.0000
     39 H16         0.5915   -1.2082    0.2610 H         1 <0>         0.0000
     40 H17        -0.2491    1.8731    3.5416 H         1 <0>         0.0000
     41 H18         0.8845    0.1717   -1.5934 H         1 <0>         0.0000
     42 H19         2.2416   -0.6802   -1.2969 H         1 <0>         0.0000
     43 H20        -0.2179   -2.4154    4.1557 H         1 <0>         0.0000
     44 H21         0.9630   -2.6038    1.7309 H         1 <0>         0.0000
     45 H22         2.7041   -2.3378    0.6655 H         1 <0>         0.0000
@<TRIPOS>BOND
     1    1    2 ar
     2    1    3 ar
     3    2    5 ar
     4    3    6 ar
     5    4    5 ar
     6    4    6 ar
     7    5    7 1
     8    6   23 1
     9    7   17 am
    10    7   19 2
    11    8   13 1
    12    8   18 am
    13    8   20 2
    14    9   15 1
    15   10   15 1
    16   11   12 1
    17   11   14 1
    18   12   22 1
    19   13   14 1
    20   13   21 1
    21   14   16 1
    22   15   22 1
    23   17   18 1
    24    1   24 1
    25    2   25 1
    26    3   26 1
    27    4   27 1
    28    9   28 1
    29    9   29 1
    30    9   30 1
    31   10   31 1
    32   10   32 1
    33   10   33 1
    34   11   34 1
    35   11   35 1
    36   12   36 1
    37   12   37 1
    38   13   38 1
    39   14   39 1
    40   15   40 1
    41   16   41 1
    42   16   42 1
    43   17   43 1
    44   18   44 1
    45   21   45 1
@<TRIPOS>MOLECULE
LIGAND
   45    45     0     0     0
SMALL
NO_CHARGES

@<TRIPOS>ATOM
      1 C1         -0.2959   -1.7283    8.4655 C.ar      1 <0>         0.0000
      2 C2          0.0807   -1.4558    7.1504 C.ar      1 <0>         0.0000
      3 C3         -1.6473   -1.8121    8.8008 C.ar      1 <0>         0.0000
      4 C4         -2.2454   -1.3505    6.5060 C.ar      1 <0>         0.0000
      5 C5         -0.8940   -1.2668    6.1707 C.ar      1 <0>         0.0000
      6 C6         -2.6221   -1.6232    7.8211 C.ar      1 <0>         0.0000
      7 C7         -0.4919   -0.9759    4.7701 C.2       1 <0>         0.0000
      8 C8          1.9325   -1.0133    2.6768 C.2       1 <0>         0.0000
      9 C9          5.1418    3.1300   -1.9709 C.3       1 <0>         0.0000
     10 C10         3.7665    4.3432   -3.6963 C.3       1 <0>         0.0000
     11 C11         1.5761    0.1765   -1.0474 C.3       1 <0>         0.0000
     12 C12         2.3784    1.4800   -1.1273 C.3       1 <0>         0.0000
     13 C13         2.3649   -0.5352    1.2935 C.3       1 <0>         0.0000
     14 C14         1.1534   -0.2750    0.3710 C.3       1 <0>         0.0000
     15 C15         3.7349    3.4566   -2.4572 C.3       1 <0>         0.0000
     16 N1          0.3597   -1.5080    0.3138 N.3       1 <0>         0.0000
     17 N2          0.7320   -0.3536    4.6161 N.am      1 <0>         0.0000
     18 N3          1.1743   -0.0714    3.3469 N.am      1 <0>         0.0000
     19 O1         -1.2351   -1.3059    3.8493 O.2       1 <0>         0.0000
     20 O2          2.2555   -2.1109    3.1269 O.2       1 <0>         0.0000
     21 O3          3.2186   -1.5159    0.7230 O.3       1 <0>         0.0000
     22 S1          2.8465    1.9264   -2.8249 S.3       1 <0>         0.0000
     23 Cl1        -4.2894   -1.7271    8.2355 Cl        1 <0>         0.0000
     24 H1          0.4631   -1.8757    9.2280 H         1 <0>         0.0000
     25 H2          1.1369   -1.3929    6.9013 H         1 <0>         0.0000
     26 H3         -1.9258   -2.0251    9.8297 H         1 <0>         0.0000
     27 H4         -3.0036   -1.2033    5.7395 H         1 <0>         0.0000
     28 H5          5.7052    2.6127   -2.7555 H         1 <0>         0.0000
     29 H6          5.6972    4.0398   -1.7170 H         1 <0>         0.0000
     30 H7          5.1290    2.4774   -1.0905 H         1 <0>         0.0000
     31 H8          4.3088    3.8446   -4.5075 H         1 <0>         0.0000
     32 H9          4.2791    5.2906   -3.4959 H         1 <0>         0.0000
     33 H10         2.7588    4.5681   -4.0639 H         1 <0>         0.0000
     34 H11         2.1843   -0.6108   -1.5125 H         1 <0>         0.0000
     35 H12         0.6847    0.2765   -1.6798 H         1 <0>         0.0000
     36 H13         3.3029    1.3655   -0.5514 H         1 <0>         0.0000
     37 H14         1.8267    2.3139   -0.6838 H         1 <0>         0.0000
     38 H15         2.9484    0.3859    1.4229 H         1 <0>         0.0000
     39 H16         0.5249    0.4957    0.8291 H         1 <0>         0.0000
     40 H17         3.1895    3.9723   -1.6597 H         1 <0>         0.0000
     41 H18        -0.4842   -1.3249   -0.2178 H         1 <0>         0.0000
     42 H19         0.0690   -1.7492    1.2550 H         1 <0>         0.0000
     43 H20         1.2931   -0.1098    5.4249 H         1 <0>         0.0000
     44 H21         0.9480    0.8148    2.9078 H         1 <0>         0.0000
     45 H22         2.7041   -2.3378    0.6655 H         1 <0>         0.0000
@<TRIPOS>BOND
     1    1    2 ar
     2    1    3 ar
     3    2    5 ar
     4    3    6 ar
     5    4    5 ar
     6    4    6 ar
     7    5    7 1
     8    6   23 1
     9    7   17 am
    10    7   19 2
    11    8   13 1
    12    8   18 am
    13    8   20 2
    14    9   15 1
    15   10   15 1
    16   11   12 1
    17   11   14 1
    18   12   22 1
    19   13   14 1
    20   13   21 1
    21   14   16 1
    22   15   22 1
    23   17   18 1
    24    1   24 1
    25    2   25 1
    26    3   26 1
    27    4   27 1
    28    9   28 1
    29    9   29 1
    30    9   30 1
    31   10   31 1
    32   10   32 1
    33   10   33 1
    34   11   34 1
    35   11   35 1
    36   12   36 1
    37   12   37 1
    38   13   38 1
    39   14   39 1
    40   15   40 1
    41   16   41 1
    42   16   42 1
    43   17   43 1
    44   18   44 1
    45   21   45 1
@<TRIPOS>MOLECULE
LIGAND
   45    45     0     0     0
SMALL
NO_CHARGES

@<TRIPOS>ATOM
      1 C1          1.1782   -5.1016    7.9278 C.ar      1 <0>         0.0000
      2 C2          1.7191   -4.6144    6.7380 C.ar      1 <0>         0.0000
      3 C3         -0.2050   -5.1246    8.1072 C.ar      1 <0>         0.0000
      4 C4         -0.5061   -4.1728    5.9071 C.ar      1 <0>         0.0000
      5 C5          0.8770   -4.1499    5.7277 C.ar      1 <0>         0.0000
      6 C6         -1.0471   -4.6601    7.0968 C.ar      1 <0>         0.0000
      7 C7          1.4542   -3.6304    4.4609 C.2       1 <0>         0.0000
      8 C8          1.9325   -1.0133    2.6768 C.2       1 <0>         0.0000
      9 C9         -2.8396    0.6809   -2.6742 C.3       1 <0>         0.0000
     10 C10        -4.6560   -0.1960   -1.1670 C.3       1 <0>         0.0000
     11 C11         0.2195    0.8307    0.9188 C.3       1 <0>         0.0000
     12 C12        -1.0001    1.1700    0.0549 C.3       1 <0>         0.0000
     13 C13         2.3649   -0.5352    1.2935 C.3       1 <0>         0.0000
     14 C14         1.1534   -0.2750    0.3710 C.3       1 <0>         0.0000
     15 C15        -3.3416    0.5718   -1.2395 C.3       1 <0>         0.0000
     16 N1          1.6681    0.0834   -0.9557 N.3       1 <0>         0.0000
     17 N2          0.6851   -2.6985    3.7909 N.am      1 <0>         0.0000
     18 N3          1.1665   -2.1628    2.6216 N.am      1 <0>         0.0000
     19 O1          2.5559   -4.0300    4.0926 O.2       1 <0>         0.0000
     20 O2          2.2299   -0.4108    3.7066 O.2       1 <0>         0.0000
     21 O3          3.2186   -1.5159    0.7230 O.3       1 <0>         0.0000
     22 S1         -2.0977   -0.2515   -0.2193 S.3       1 <0>         0.0000
     23 Cl1        -2.7537   -4.6891    7.3187 Cl        1 <0>         0.0000
     24 H1          1.8340   -5.4635    8.7141 H         1 <0>         0.0000
     25 H2          2.7985   -4.6015    6.6100 H         1 <0>         0.0000
     26 H3         -0.6121   -5.5071    9.0396 H         1 <0>         0.0000
     27 H4         -1.1607   -3.8103    5.1170 H         1 <0>         0.0000
     28 H5         -2.6847   -0.3167   -3.1002 H         1 <0>         0.0000
     29 H6         -3.5648    1.1984   -3.3121 H         1 <0>         0.0000
     30 H7         -1.8850    1.2160   -2.7338 H         1 <0>         0.0000
     31 H8         -4.5291   -1.2071   -1.5698 H         1 <0>         0.0000
     32 H9         -5.4375    0.2943   -1.7580 H         1 <0>         0.0000
     33 H10        -5.0153   -0.2952   -0.1363 H         1 <0>         0.0000
     34 H11        -0.1531    0.5335    1.9082 H         1 <0>         0.0000
     35 H12         0.7975    1.7493    1.0822 H         1 <0>         0.0000
     36 H13        -0.6573    1.5138   -0.9268 H         1 <0>         0.0000
     37 H14        -1.5832    1.9849    0.4933 H         1 <0>         0.0000
     38 H15         2.9484    0.3859    1.4229 H         1 <0>         0.0000
     39 H16         0.5915   -1.2082    0.2610 H         1 <0>         0.0000
     40 H17        -3.4899    1.5778   -0.8328 H         1 <0>         0.0000
     41 H18         0.8845    0.1717   -1.5934 H         1 <0>         0.0000
     42 H19         2.2416   -0.6802   -1.2969 H         1 <0>         0.0000
     43 H20        -0.2179   -2.4154    4.1557 H         1 <0>         0.0000
     44 H21         0.9630   -2.6038    1.7309 H         1 <0>         0.0000
     45 H22         2.7041   -2.3378    0.6655 H         1 <0>         0.0000
@<TRIPOS>BOND
     1    1    2 ar
     2    1    3 ar
     3    2    5 ar
     4    3    6 ar
     5    4    5 ar
     6    4    6 ar
     7    5    7 1
     8    6   23 1
     9    7   17 am
    10    7   19 2
    11    8   13 1
    12    8   18 am
    13    8   20 2
    14    9   15 1
    15   10   15 1
    16   11   12 1
    17   11   14 1
    18   12   22 1
    19   13   14 1
    20   13   21 1
    21   14   16 1
    22   15   22 1
    23   17   18 1
    24    1   24 1
    25    2   25 1
    26    3   26 1
    27    4   27 1
    28    9   28 1
    29    9   29 1
    30    9   30 1
    31   10   31 1
    32   10   32 1
    33   10   33 1
    34   11   34 1
    35   11   35 1
    36   12   36 1
    37   12   37 1
    38   13   38 1
    39   14   39 1
    40   15   40 1
    41   16   41 1
    42   16   42 1
    43   17   43 1
    44   18   44 1
    45   21   45 1
@<TRIPOS>MOLECULE
LIGAND
   45    45     0     0     0
SMALL
NO_CHARGES

@<TRIPOS>ATOM
      1 C1          0.3098   -0.7270    9.1684 C.ar      1 <0>         0.0000
      2 C2          0.5387   -0.2630    7.8731 C.ar      1 <0>         0.0000
      3 C3          1.1930   -1.6369    9.7496 C.ar      1 <0>         0.0000
      4 C4          2.5339   -1.6190    7.7400 C.ar      1 <0>         0.0000
      5 C5          1.6507   -0.7090    7.1588 C.ar      1 <0>         0.0000
      6 C6          2.3050   -2.0829    9.0354 C.ar      1 <0>         0.0000
      7 C7          1.8934   -0.2148    5.7787 C.2       1 <0>         0.0000
      8 C8          1.9325   -1.0133    2.6768 C.2       1 <0>         0.0000
      9 C9         -2.4695    4.5098    0.4722 C.3       1 <0>         0.0000
     10 C10        -0.2177    4.7761   -0.6229 C.3       1 <0>         0.0000
     11 C11         0.2195    0.8307    0.9188 C.3       1 <0>         0.0000
     12 C12         0.8590    2.2074    1.1305 C.3       1 <0>         0.0000
     13 C13         2.3649   -0.5352    1.2935 C.3       1 <0>         0.0000
     14 C14         1.1534   -0.2750    0.3710 C.3       1 <0>         0.0000
     15 C15        -1.1189    3.8600    0.1963 C.3       1 <0>         0.0000
     16 N1          1.6681    0.0834   -0.9557 N.3       1 <0>         0.0000
     17 N2          2.6023   -1.0670    4.9540 N.am      1 <0>         0.0000
     18 N3          2.8469   -0.6810    3.6590 N.am      1 <0>         0.0000
     19 O1          1.4534    0.8829    5.4461 O.2       1 <0>         0.0000
     20 O2          0.8915   -1.6405    2.8632 O.2       1 <0>         0.0000
     21 O3          3.2186   -1.5159    0.7230 O.3       1 <0>         0.0000
     22 S1         -0.3102    3.4478    1.7590 S.3       1 <0>         0.0000
     23 Cl1         3.3947   -3.2053    9.7533 Cl        1 <0>         0.0000
     24 H1         -0.5558   -0.3793    9.7245 H         1 <0>         0.0000
     25 H2         -0.1567    0.4458    7.4309 H         1 <0>         0.0000
     26 H3          1.0018   -1.9896   10.7598 H         1 <0>         0.0000
     27 H4          3.4009   -1.9648    7.1806 H         1 <0>         0.0000
     28 H5         -2.3352    5.4486    1.0211 H         1 <0>         0.0000
     29 H6         -2.9944    4.7495   -0.4593 H         1 <0>         0.0000
     30 H7         -3.1176    3.8651    1.0767 H         1 <0>         0.0000
     31 H8         -0.0488    5.7190   -0.0908 H         1 <0>         0.0000
     32 H9         -0.6728    5.0239   -1.5883 H         1 <0>         0.0000
     33 H10         0.7629    4.3240   -0.8105 H         1 <0>         0.0000
     34 H11        -0.6259    0.9652    0.2307 H         1 <0>         0.0000
     35 H12        -0.2197    0.5004    1.8688 H         1 <0>         0.0000
     36 H13         1.2423    2.5738    0.1722 H         1 <0>         0.0000
     37 H14         1.7108    2.1489    1.8142 H         1 <0>         0.0000
     38 H15         2.9484    0.3859    1.4229 H         1 <0>         0.0000
     39 H16         0.5915   -1.2082    0.2610 H         1 <0>         0.0000
     40 H17        -1.2750    2.9249   -0.3521 H         1 <0>         0.0000
     41 H18         0.8845    0.1717   -1.5934 H         1 <0>         0.0000
     42 H19         2.2416   -0.6802   -1.2969 H         1 <0>         0.0000
     43 H20         2.9356   -1.9607    5.2985 H         1 <0>         0.0000
     44 H21         3.6858   -0.1599    3.4266 H         1 <0>         0.0000
     45 H22         2.7041   -2.3378    0.6655 H         1 <0>         0.0000
@<TRIPOS>BOND
     1    1    2 ar
     2    1    3 ar
     3    2    5 ar
     4    3    6 ar
     5    4    5 ar
     6    4    6 ar
     7    5    7 1
     8    6   23 1
     9    7   17 am
    10    7   19 2
    11    8   13 1
    12    8   18 am
    13    8   20 2
    14    9   15 1
    15   10   15 1
    16   11   12 1
    17   11   14 1
    18   12   22 1
    19   13   14 1
    20   13   21 1
    21   14   16 1
    22   15   22 1
    23   17   18 1
    24    1   24 1
    25    2   25 1
    26    3   26 1
    27    4   27 1
    28    9   28 1
    29    9   29 1
    30    9   30 1
    31   10   31 1
    32   10   32 1
    33   10   33 1
    34   11   34 1
    35   11   35 1
    36   12   36 1
    37   12   37 1
    38   13   38 1
    39   14   39 1
    40   15   40 1
    41   16   41 1
    42   16   42 1
    43   17   43 1
    44   18   44 1
    45   21   45 1
@<TRIPOS>MOLECULE
LIGAND
   45    45     0     0     0
SMALL
NO_CHARGES

@<TRIPOS>ATOM
      1 C1         -0.5153   -4.0016    7.6155 C.ar      1 <0>         0.0000
      2 C2         -0.0816   -3.4032    6.4326 C.ar      1 <0>         0.0000
      3 C3         -1.8803   -4.1197    7.8777 C.ar      1 <0>         0.0000
      4 C4         -2.3777   -3.0408    5.7741 C.ar      1 <0>         0.0000
      5 C5         -1.0128   -2.9227    5.5119 C.ar      1 <0>         0.0000
      6 C6         -2.8114   -3.6393    6.9570 C.ar      1 <0>         0.0000
      7 C7         -0.5498   -2.2848    4.2523 C.2       1 <0>         0.0000
      8 C8          1.9325   -1.0133    2.6768 C.2       1 <0>         0.0000
      9 C9         -1.3566    4.2423   -1.1718 C.3       1 <0>         0.0000
     10 C10        -1.3823    5.0762    1.2040 C.3       1 <0>         0.0000
     11 C11         0.2195    0.8307    0.9188 C.3       1 <0>         0.0000
     12 C12        -1.0001    1.1700    0.0549 C.3       1 <0>         0.0000
     13 C13         2.3649   -0.5352    1.2935 C.3       1 <0>         0.0000
     14 C14         1.1534   -0.2750    0.3710 C.3       1 <0>         0.0000
     15 C15        -1.0699    3.9009    0.2855 C.3       1 <0>         0.0000
     16 N1          1.6681    0.0834   -0.9557 N.3       1 <0>         0.0000
     17 N2          0.6851   -2.6985    3.7909 N.am      1 <0>         0.0000
     18 N3          1.1665   -2.1628    2.6216 N.am      1 <0>         0.0000
     19 O1         -1.2703   -1.4609    3.6944 O.2       1 <0>         0.0000
     20 O2          2.2299   -0.4108    3.7066 O.2       1 <0>         0.0000
     21 O3          3.2186   -1.5159    0.7230 O.3       1 <0>         0.0000
     22 S1         -2.0492    2.4644    0.7791 S.3       1 <0>         0.0000
     23 Cl1        -4.4955   -3.7857    7.2810 Cl        1 <0>         0.0000
     24 H1          0.2098   -4.3759    8.3321 H         1 <0>         0.0000
     25 H2          0.9846   -3.3169    6.2396 H         1 <0>         0.0000
     26 H3         -2.2034   -4.5883    8.8037 H         1 <0>         0.0000
     27 H4         -3.1019   -2.6655    5.0538 H         1 <0>         0.0000
     28 H5         -2.4105    4.5137   -1.2989 H         1 <0>         0.0000
     29 H6         -0.7576    5.0967   -1.5064 H         1 <0>         0.0000
     30 H7         -1.1520    3.3963   -1.8378 H         1 <0>         0.0000
     31 H8         -2.4367    5.3604    1.1134 H         1 <0>         0.0000
     32 H9         -0.7841    5.9563    0.9431 H         1 <0>         0.0000
     33 H10        -1.1964    4.8333    2.2564 H         1 <0>         0.0000
     34 H11        -0.1531    0.5335    1.9082 H         1 <0>         0.0000
     35 H12         0.7975    1.7493    1.0822 H         1 <0>         0.0000
     36 H13        -1.6176    0.2727   -0.0585 H         1 <0>         0.0000
     37 H14        -0.7009    1.4813   -0.9501 H         1 <0>         0.0000
     38 H15         2.9484    0.3859    1.4229 H         1 <0>         0.0000
     39 H16         0.5915   -1.2082    0.2610 H         1 <0>         0.0000
     40 H17        -0.0132    3.6330    0.3910 H         1 <0>         0.0000
     41 H18         0.8845    0.1717   -1.5934 H         1 <0>         0.0000
     42 H19         2.2416   -0.6802   -1.2969 H         1 <0>         0.0000
     43 H20         1.2257   -3.3847    4.3060 H         1 <0>         0.0000
     44 H21         0.9630   -2.6038    1.7309 H         1 <0>         0.0000
     45 H22         2.7041   -2.3378    0.6655 H         1 <0>         0.0000
@<TRIPOS>BOND
     1    1    2 ar
     2    1    3 ar
     3    2    5 ar
     4    3    6 ar
     5    4    5 ar
     6    4    6 ar
     7    5    7 1
     8    6   23 1
     9    7   17 am
    10    7   19 2
    11    8   13 1
    12    8   18 am
    13    8   20 2
    14    9   15 1
    15   10   15 1
    16   11   12 1
    17   11   14 1
    18   12   22 1
    19   13   14 1
    20   13   21 1
    21   14   16 1
    22   15   22 1
    23   17   18 1
    24    1   24 1
    25    2   25 1
    26    3   26 1
    27    4   27 1
    28    9   28 1
    29    9   29 1
    30    9   30 1
    31   10   31 1
    32   10   32 1
    33   10   33 1
    34   11   34 1
    35   11   35 1
    36   12   36 1
    37   12   37 1
    38   13   38 1
    39   14   39 1
    40   15   40 1
    41   16   41 1
    42   16   42 1
    43   17   43 1
    44   18   44 1
    45   21   45 1
@<TRIPOS>MOLECULE
LIGAND
   45    45     0     0     0
SMALL
NO_CHARGES

@<TRIPOS>ATOM
      1 C1         -0.9264   -0.6930    8.4760 C.ar      1 <0>         0.0000
      2 C2         -0.4061   -0.3932    7.2170 C.ar      1 <0>         0.0000
      3 C3         -0.0659   -0.9225    9.5497 C.ar      1 <0>         0.0000
      4 C4          1.8351   -0.5526    8.1053 C.ar      1 <0>         0.0000
      5 C5          0.9746   -0.3231    7.0316 C.ar      1 <0>         0.0000
      6 C6          1.3148   -0.8524    9.3643 C.ar      1 <0>         0.0000
      7 C7          1.5280   -0.0043    5.6900 C.2       1 <0>         0.0000
      8 C8          1.9325   -1.0133    2.6768 C.2       1 <0>         0.0000
      9 C9         -0.7661    4.0842   -1.5067 C.3       1 <0>         0.0000
     10 C10         1.2631    3.9522   -2.9918 C.3       1 <0>         0.0000
     11 C11         1.5761    0.1765   -1.0474 C.3       1 <0>         0.0000
     12 C12         2.3784    1.4800   -1.1273 C.3       1 <0>         0.0000
     13 C13         2.3649   -0.5352    1.2935 C.3       1 <0>         0.0000
     14 C14         1.1534   -0.2750    0.3710 C.3       1 <0>         0.0000
     15 C15         0.4393    3.2484   -1.9202 C.3       1 <0>         0.0000
     16 N1          0.3597   -1.5080    0.3138 N.3       1 <0>         0.0000
     17 N2          0.7320   -0.3536    4.6161 N.am      1 <0>         0.0000
     18 N3          1.1743   -0.0714    3.3469 N.am      1 <0>         0.0000
     19 O1          2.6215    0.5492    5.6056 O.2       1 <0>         0.0000
     20 O2          2.2555   -2.1109    3.1269 O.2       1 <0>         0.0000
     21 O3          3.2186   -1.5159    0.7230 O.3       1 <0>         0.0000
     22 S1          1.4741    2.9151   -0.4766 S.3       1 <0>         0.0000
     23 Cl1         2.3759   -1.1353   10.6896 Cl        1 <0>         0.0000
     24 H1         -2.0014   -0.7472    8.6202 H         1 <0>         0.0000
     25 H2         -1.0867   -0.2164    6.3881 H         1 <0>         0.0000
     26 H3         -0.4859   -1.1551   10.5249 H         1 <0>         0.0000
     27 H4          2.9117   -0.4967    7.9578 H         1 <0>         0.0000
     28 H5         -0.4402    5.0542   -1.1149 H         1 <0>         0.0000
     29 H6         -1.4254    4.2821   -2.3592 H         1 <0>         0.0000
     30 H7         -1.3544    3.5937   -0.7229 H         1 <0>         0.0000
     31 H8          1.6202    4.9203   -2.6228 H         1 <0>         0.0000
     32 H9          0.6667    4.1459   -3.8903 H         1 <0>         0.0000
     33 H10         2.1426    3.3661   -3.2821 H         1 <0>         0.0000
     34 H11         2.1843   -0.6108   -1.5125 H         1 <0>         0.0000
     35 H12         0.6847    0.2765   -1.6798 H         1 <0>         0.0000
     36 H13         2.6151    1.6893   -2.1758 H         1 <0>         0.0000
     37 H14         3.3304    1.3937   -0.5957 H         1 <0>         0.0000
     38 H15         2.9484    0.3859    1.4229 H         1 <0>         0.0000
     39 H16         0.5249    0.4957    0.8291 H         1 <0>         0.0000
     40 H17         0.0926    2.2847   -2.3082 H         1 <0>         0.0000
     41 H18        -0.4842   -1.3249   -0.2178 H         1 <0>         0.0000
     42 H19         0.0690   -1.7492    1.2550 H         1 <0>         0.0000
     43 H20        -0.1619   -0.8097    4.7623 H         1 <0>         0.0000
     44 H21         0.9480    0.8148    2.9078 H         1 <0>         0.0000
     45 H22         2.7041   -2.3378    0.6655 H         1 <0>         0.0000
@<TRIPOS>BOND
     1    1    2 ar
     2    1    3 ar
     3    2    5 ar
     4    3    6 ar
     5    4    5 ar
     6    4    6 ar
     7    5    7 1
     8    6   23 1
     9    7   17 am
    10    7   19 2
    11    8   13 1
    12    8   18 am
    13    8   20 2
    14    9   15 1
    15   10   15 1
    16   11   12 1
    17   11   14 1
    18   12   22 1
    19   13   14 1
    20   13   21 1
    21   14   16 1
    22   15   22 1
    23   17   18 1
    24    1   24 1
    25    2   25 1
    26    3   26 1
    27    4   27 1
    28    9   28 1
    29    9   29 1
    30    9   30 1
    31   10   31 1
    32   10   32 1
    33   10   33 1
    34   11   34 1
    35   11   35 1
    36   12   36 1
    37   12   37 1
    38   13   38 1
    39   14   39 1
    40   15   40 1
    41   16   41 1
    42   16   42 1
    43   17   43 1
    44   18   44 1
    45   21   45 1
@<TRIPOS>MOLECULE
LIGAND
   45    45     0     0     0
SMALL
NO_CHARGES

@<TRIPOS>ATOM
      1 C1         -0.9982   -4.7984    7.0345 C.ar      1 <0>         0.0000
      2 C2         -0.5646   -4.1991    5.8520 C.ar      1 <0>         0.0000
      3 C3         -1.8801   -4.1214    7.8770 C.ar      1 <0>         0.0000
      4 C4         -1.8946   -2.2457    6.3543 C.ar      1 <0>         0.0000
      5 C5         -1.0128   -2.9227    5.5119 C.ar      1 <0>         0.0000
      6 C6         -2.3282   -2.8450    7.5369 C.ar      1 <0>         0.0000
      7 C7         -0.5498   -2.2848    4.2523 C.2       1 <0>         0.0000
      8 C8          1.9325   -1.0133    2.6768 C.2       1 <0>         0.0000
      9 C9         -1.3566    4.2423   -1.1718 C.3       1 <0>         0.0000
     10 C10        -1.3823    5.0762    1.2040 C.3       1 <0>         0.0000
     11 C11         0.2195    0.8307    0.9188 C.3       1 <0>         0.0000
     12 C12        -1.0001    1.1700    0.0549 C.3       1 <0>         0.0000
     13 C13         2.3649   -0.5352    1.2935 C.3       1 <0>         0.0000
     14 C14         1.1534   -0.2750    0.3710 C.3       1 <0>         0.0000
     15 C15        -1.0699    3.9009    0.2855 C.3       1 <0>         0.0000
     16 N1          1.6681    0.0834   -0.9557 N.3       1 <0>         0.0000
     17 N2          0.6851   -2.6985    3.7909 N.am      1 <0>         0.0000
     18 N3          1.1665   -2.1628    2.6216 N.am      1 <0>         0.0000
     19 O1         -1.2703   -1.4609    3.6944 O.2       1 <0>         0.0000
     20 O2          2.2299   -0.4108    3.7066 O.2       1 <0>         0.0000
     21 O3          3.2186   -1.5159    0.7230 O.3       1 <0>         0.0000
     22 S1         -2.0492    2.4644    0.7791 S.3       1 <0>         0.0000
     23 Cl1        -3.4168   -2.0104    8.5766 Cl        1 <0>         0.0000
     24 H1         -0.6495   -5.7923    7.2990 H         1 <0>         0.0000
     25 H2          0.1227   -4.7366    5.2037 H         1 <0>         0.0000
     26 H3         -2.2094   -4.6010    8.7951 H         1 <0>         0.0000
     27 H4         -2.2430   -1.2503    6.0862 H         1 <0>         0.0000
     28 H5         -2.4105    4.5137   -1.2989 H         1 <0>         0.0000
     29 H6         -0.7576    5.0967   -1.5064 H         1 <0>         0.0000
     30 H7         -1.1520    3.3963   -1.8378 H         1 <0>         0.0000
     31 H8         -2.4367    5.3604    1.1134 H         1 <0>         0.0000
     32 H9         -0.7841    5.9563    0.9431 H         1 <0>         0.0000
     33 H10        -1.1964    4.8333    2.2564 H         1 <0>         0.0000
     34 H11        -0.1531    0.5335    1.9082 H         1 <0>         0.0000
     35 H12         0.7975    1.7493    1.0822 H         1 <0>         0.0000
     36 H13        -1.6176    0.2727   -0.0585 H         1 <0>         0.0000
     37 H14        -0.7009    1.4813   -0.9501 H         1 <0>         0.0000
     38 H15         2.9484    0.3859    1.4229 H         1 <0>         0.0000
     39 H16         0.5915   -1.2082    0.2610 H         1 <0>         0.0000
     40 H17        -0.0132    3.6330    0.3910 H         1 <0>         0.0000
     41 H18         0.8845    0.1717   -1.5934 H         1 <0>         0.0000
     42 H19         2.2416   -0.6802   -1.2969 H         1 <0>         0.0000
     43 H20         1.2257   -3.3847    4.3060 H         1 <0>         0.0000
     44 H21         0.9630   -2.6038    1.7309 H         1 <0>         0.0000
     45 H22         2.7041   -2.3378    0.6655 H         1 <0>         0.0000
@<TRIPOS>BOND
     1    1    2 ar
     2    1    3 ar
     3    2    5 ar
     4    3    6 ar
     5    4    5 ar
     6    4    6 ar
     7    5    7 1
     8    6   23 1
     9    7   17 am
    10    7   19 2
    11    8   13 1
    12    8   18 am
    13    8   20 2
    14    9   15 1
    15   10   15 1
    16   11   12 1
    17   11   14 1
    18   12   22 1
    19   13   14 1
    20   13   21 1
    21   14   16 1
    22   15   22 1
    23   17   18 1
    24    1   24 1
    25    2   25 1
    26    3   26 1
    27    4   27 1
    28    9   28 1
    29    9   29 1
    30    9   30 1
    31   10   31 1
    32   10   32 1
    33   10   33 1
    34   11   34 1
    35   11   35 1
    36   12   36 1
    37   12   37 1
    38   13   38 1
    39   14   39 1
    40   15   40 1
    41   16   41 1
    42   16   42 1
    43   17   43 1
    44   18   44 1
    45   21   45 1
@<TRIPOS>MOLECULE
LIGAND
   45    45     0     0     0
SMALL
NO_CHARGES

@<TRIPOS>ATOM
      1 C1         -2.6332   -0.5024    8.0491 C.ar      1 <0>         0.0000
      2 C2         -2.2347   -0.1578    6.7576 C.ar      1 <0>         0.0000
      3 C3         -1.6781   -0.8523    9.0037 C.ar      1 <0>         0.0000
      4 C4          0.0739   -0.5130    7.3751 C.ar      1 <0>         0.0000
      5 C5         -0.8811   -0.1631    6.4206 C.ar      1 <0>         0.0000
      6 C6         -0.3246   -0.8576    8.6667 C.ar      1 <0>         0.0000
      7 C7         -0.4576    0.2036    5.0443 C.2       1 <0>         0.0000
      8 C8          1.9325   -1.0133    2.6768 C.2       1 <0>         0.0000
      9 C9          2.4151    5.4477   -0.0931 C.3       1 <0>         0.0000
     10 C10         3.6045    3.5739    1.0963 C.3       1 <0>         0.0000
     11 C11         1.5761    0.1765   -1.0474 C.3       1 <0>         0.0000
     12 C12         2.3784    1.4800   -1.1273 C.3       1 <0>         0.0000
     13 C13         2.3649   -0.5352    1.2935 C.3       1 <0>         0.0000
     14 C14         1.1534   -0.2750    0.3710 C.3       1 <0>         0.0000
     15 C15         2.8874    4.0013   -0.1787 C.3       1 <0>         0.0000
     16 N1          0.3597   -1.5080    0.3138 N.3       1 <0>         0.0000
     17 N2          0.7320   -0.3536    4.6161 N.am      1 <0>         0.0000
     18 N3          1.1743   -0.0714    3.3469 N.am      1 <0>         0.0000
     19 O1         -1.1696    0.9461    4.3728 O.2       1 <0>         0.0000
     20 O2          2.2555   -2.1109    3.1269 O.2       1 <0>         0.0000
     21 O3          3.2186   -1.5159    0.7230 O.3       1 <0>         0.0000
     22 S1          1.4741    2.9151   -0.4766 S.3       1 <0>         0.0000
     23 Cl1         0.8534   -1.2889    9.8452 Cl        1 <0>         0.0000
     24 H1         -3.6870   -0.4979    8.3114 H         1 <0>         0.0000
     25 H2         -2.9882    0.1130    6.0224 H         1 <0>         0.0000
     26 H3         -2.0036   -1.1185   10.0060 H         1 <0>         0.0000
     27 H4          1.1292   -0.5157    7.1095 H         1 <0>         0.0000
     28 H5          1.7293    5.5747    0.7520 H         1 <0>         0.0000
     29 H6          3.2556    6.1330    0.0636 H         1 <0>         0.0000
     30 H7          1.8820    5.7580   -0.9990 H         1 <0>         0.0000
     31 H8          2.9369    3.6722    1.9597 H         1 <0>         0.0000
     32 H9          4.4819    4.2010    1.2898 H         1 <0>         0.0000
     33 H10         3.9317    2.5289    1.0507 H         1 <0>         0.0000
     34 H11         2.1843   -0.6108   -1.5125 H         1 <0>         0.0000
     35 H12         0.6847    0.2765   -1.6798 H         1 <0>         0.0000
     36 H13         2.6151    1.6893   -2.1758 H         1 <0>         0.0000
     37 H14         3.3304    1.3937   -0.5957 H         1 <0>         0.0000
     38 H15         2.9484    0.3859    1.4229 H         1 <0>         0.0000
     39 H16         0.5249    0.4957    0.8291 H         1 <0>         0.0000
     40 H17         3.5706    3.8957   -1.0281 H         1 <0>         0.0000
     41 H18        -0.4842   -1.3249   -0.2178 H         1 <0>         0.0000
     42 H19         0.0690   -1.7492    1.2550 H         1 <0>         0.0000
     43 H20         1.2684   -0.9594    5.2274 H         1 <0>         0.0000
     44 H21         0.9480    0.8148    2.9078 H         1 <0>         0.0000
     45 H22         2.7041   -2.3378    0.6655 H         1 <0>         0.0000
@<TRIPOS>BOND
     1    1    2 ar
     2    1    3 ar
     3    2    5 ar
     4    3    6 ar
     5    4    5 ar
     6    4    6 ar
     7    5    7 1
     8    6   23 1
     9    7   17 am
    10    7   19 2
    11    8   13 1
    12    8   18 am
    13    8   20 2
    14    9   15 1
    15   10   15 1
    16   11   12 1
    17   11   14 1
    18   12   22 1
    19   13   14 1
    20   13   21 1
    21   14   16 1
    22   15   22 1
    23   17   18 1
    24    1   24 1
    25    2   25 1
    26    3   26 1
    27    4   27 1
    28    9   28 1
    29    9   29 1
    30    9   30 1
    31   10   31 1
    32   10   32 1
    33   10   33 1
    34   11   34 1
    35   11   35 1
    36   12   36 1
    37   12   37 1
    38   13   38 1
    39   14   39 1
    40   15   40 1
    41   16   41 1
    42   16   42 1
    43   17   43 1
    44   18   44 1
    45   21   45 1
@<TRIPOS>MOLECULE
LIGAND
   45    45     0     0     0
SMALL
NO_CHARGES

@<TRIPOS>ATOM
      1 C1          1.2491   -0.2643    9.4993 C.ar      1 <0>         0.0000
      2 C2          1.4776    0.1988    8.2036 C.ar      1 <0>         0.0000
      3 C3          1.1939   -1.6354    9.7503 C.ar      1 <0>         0.0000
      4 C4          1.5955   -2.0801    7.4098 C.ar      1 <0>         0.0000
      5 C5          1.6507   -0.7090    7.1588 C.ar      1 <0>         0.0000
      6 C6          1.3670   -2.5432    8.7056 C.ar      1 <0>         0.0000
      7 C7          1.8934   -0.2148    5.7787 C.2       1 <0>         0.0000
      8 C8          1.9325   -1.0133    2.6768 C.2       1 <0>         0.0000
      9 C9         -3.5456    2.3208    3.0565 C.3       1 <0>         0.0000
     10 C10        -4.0220    0.6377    1.2453 C.3       1 <0>         0.0000
     11 C11         0.2195    0.8307    0.9188 C.3       1 <0>         0.0000
     12 C12        -1.0001    1.1700    0.0549 C.3       1 <0>         0.0000
     13 C13         2.3649   -0.5352    1.2935 C.3       1 <0>         0.0000
     14 C14         1.1534   -0.2750    0.3710 C.3       1 <0>         0.0000
     15 C15        -2.9459    1.4397    1.9673 C.3       1 <0>         0.0000
     16 N1          1.6681    0.0834   -0.9557 N.3       1 <0>         0.0000
     17 N2          2.6023   -1.0670    4.9540 N.am      1 <0>         0.0000
     18 N3          2.8469   -0.6810    3.6590 N.am      1 <0>         0.0000
     19 O1          1.4534    0.8829    5.4461 O.2       1 <0>         0.0000
     20 O2          0.8915   -1.6405    2.8632 O.2       1 <0>         0.0000
     21 O3          3.2186   -1.5159    0.7230 O.3       1 <0>         0.0000
     22 S1         -2.0492    2.4644    0.7791 S.3       1 <0>         0.0000
     23 Cl1         1.2993   -4.2348    9.0161 Cl        1 <0>         0.0000
     24 H1          1.1146    0.4426   10.3126 H         1 <0>         0.0000
     25 H2          1.5183    1.2695    8.0204 H         1 <0>         0.0000
     26 H3          1.0151   -1.9815   10.7651 H         1 <0>         0.0000
     27 H4          1.7315   -2.7860    6.5930 H         1 <0>         0.0000
     28 H5         -4.2705    3.0197    2.6246 H         1 <0>         0.0000
     29 H6         -4.0763    1.7229    3.8059 H         1 <0>         0.0000
     30 H7         -2.7806    2.9152    3.5690 H         1 <0>         0.0000
     31 H8         -4.7543    1.3108    0.7855 H         1 <0>         0.0000
     32 H9         -4.5673   -0.0125    1.9385 H         1 <0>         0.0000
     33 H10        -3.6015    0.0146    0.4477 H         1 <0>         0.0000
     34 H11        -0.1531    0.5335    1.9082 H         1 <0>         0.0000
     35 H12         0.7975    1.7493    1.0822 H         1 <0>         0.0000
     36 H13        -1.6176    0.2727   -0.0585 H         1 <0>         0.0000
     37 H14        -0.7009    1.4813   -0.9501 H         1 <0>         0.0000
     38 H15         2.9484    0.3859    1.4229 H         1 <0>         0.0000
     39 H16         0.5915   -1.2082    0.2610 H         1 <0>         0.0000
     40 H17        -2.2253    0.7496    2.4190 H         1 <0>         0.0000
     41 H18         0.8845    0.1717   -1.5934 H         1 <0>         0.0000
     42 H19         2.2416   -0.6802   -1.2969 H         1 <0>         0.0000
     43 H20         2.9356   -1.9607    5.2985 H         1 <0>         0.0000
     44 H21         3.6858   -0.1599    3.4266 H         1 <0>         0.0000
     45 H22         2.7041   -2.3378    0.6655 H         1 <0>         0.0000
@<TRIPOS>BOND
     1    1    2 ar
     2    1    3 ar
     3    2    5 ar
     4    3    6 ar
     5    4    5 ar
     6    4    6 ar
     7    5    7 1
     8    6   23 1
     9    7   17 am
    10    7   19 2
    11    8   13 1
    12    8   18 am
    13    8   20 2
    14    9   15 1
    15   10   15 1
    16   11   12 1
    17   11   14 1
    18   12   22 1
    19   13   14 1
    20   13   21 1
    21   14   16 1
    22   15   22 1
    23   17   18 1
    24    1   24 1
    25    2   25 1
    26    3   26 1
    27    4   27 1
    28    9   28 1
    29    9   29 1
    30    9   30 1
    31   10   31 1
    32   10   32 1
    33   10   33 1
    34   11   34 1
    35   11   35 1
    36   12   36 1
    37   12   37 1
    38   13   38 1
    39   14   39 1
    40   15   40 1
    41   16   41 1
    42   16   42 1
    43   17   43 1
    44   18   44 1
    45   21   45 1
@<TRIPOS>MOLECULE
LIGAND
   45    45     0     0     0
SMALL
NO_CHARGES

@<TRIPOS>ATOM
      1 C1         -2.6241   -1.6244    7.8186 C.ar      1 <0>         0.0000
      2 C2         -2.2458   -1.3508    6.5042 C.ar      1 <0>         0.0000
      3 C3         -1.6506   -1.8141    8.7994 C.ar      1 <0>         0.0000
      4 C4          0.0795   -1.4566    7.1515 C.ar      1 <0>         0.0000
      5 C5         -0.8940   -1.2668    6.1707 C.ar      1 <0>         0.0000
      6 C6         -0.2989   -1.7302    8.4659 C.ar      1 <0>         0.0000
      7 C7         -0.4919   -0.9759    4.7701 C.2       1 <0>         0.0000
      8 C8          1.9325   -1.0133    2.6768 C.2       1 <0>         0.0000
      9 C9          0.2249   -1.3614   -4.8293 C.3       1 <0>         0.0000
     10 C10         2.4955   -0.4691   -5.4530 C.3       1 <0>         0.0000
     11 C11         1.5761    0.1765   -1.0474 C.3       1 <0>         0.0000
     12 C12         0.4360    0.4372   -2.0380 C.3       1 <0>         0.0000
     13 C13         2.3649   -0.5352    1.2935 C.3       1 <0>         0.0000
     14 C14         1.1534   -0.2750    0.3710 C.3       1 <0>         0.0000
     15 C15         1.4734   -0.6402   -4.3356 C.3       1 <0>         0.0000
     16 N1          0.3597   -1.5080    0.3138 N.3       1 <0>         0.0000
     17 N2          0.7320   -0.3536    4.6161 N.am      1 <0>         0.0000
     18 N3          1.1743   -0.0714    3.3469 N.am      1 <0>         0.0000
     19 O1         -1.2351   -1.3059    3.8493 O.2       1 <0>         0.0000
     20 O2          2.2555   -2.1109    3.1269 O.2       1 <0>         0.0000
     21 O3          3.2186   -1.5159    0.7230 O.3       1 <0>         0.0000
     22 S1          1.0200    0.9781   -3.6711 S.3       1 <0>         0.0000
     23 Cl1         0.9018   -1.9639    9.6768 Cl        1 <0>         0.0000
     24 H1         -3.6766   -1.6894    8.0781 H         1 <0>         0.0000
     25 H2         -3.0136   -1.2050    5.7487 H         1 <0>         0.0000
     26 H3         -1.9605   -2.0267    9.8194 H         1 <0>         0.0000
     27 H4          1.1333   -1.3900    6.8885 H         1 <0>         0.0000
     28 H5         -0.2418   -0.7988   -5.6457 H         1 <0>         0.0000
     29 H6          0.4667   -2.3574   -5.2167 H         1 <0>         0.0000
     30 H7         -0.5235   -1.4725   -4.0365 H         1 <0>         0.0000
     31 H8          2.0637    0.1071   -6.2789 H         1 <0>         0.0000
     32 H9          2.8077   -1.4375   -5.8596 H         1 <0>         0.0000
     33 H10         3.3894    0.0650   -5.1112 H         1 <0>         0.0000
     34 H11         2.1631    1.1018   -0.9736 H         1 <0>         0.0000
     35 H12         2.2520   -0.5707   -1.4824 H         1 <0>         0.0000
     36 H13        -0.2073    1.2295   -1.6408 H         1 <0>         0.0000
     37 H14        -0.1907   -0.4501   -2.1649 H         1 <0>         0.0000
     38 H15         2.9484    0.3859    1.4229 H         1 <0>         0.0000
     39 H16         0.5249    0.4957    0.8291 H         1 <0>         0.0000
     40 H17         1.9240   -1.2177   -3.5214 H         1 <0>         0.0000
     41 H18        -0.4842   -1.3249   -0.2178 H         1 <0>         0.0000
     42 H19         0.0690   -1.7492    1.2550 H         1 <0>         0.0000
     43 H20         1.2931   -0.1098    5.4249 H         1 <0>         0.0000
     44 H21         0.9480    0.8148    2.9078 H         1 <0>         0.0000
     45 H22         2.7041   -2.3378    0.6655 H         1 <0>         0.0000
@<TRIPOS>BOND
     1    1    2 ar
     2    1    3 ar
     3    2    5 ar
     4    3    6 ar
     5    4    5 ar
     6    4    6 ar
     7    5    7 1
     8    6   23 1
     9    7   17 am
    10    7   19 2
    11    8   13 1
    12    8   18 am
    13    8   20 2
    14    9   15 1
    15   10   15 1
    16   11   12 1
    17   11   14 1
    18   12   22 1
    19   13   14 1
    20   13   21 1
    21   14   16 1
    22   15   22 1
    23   17   18 1
    24    1   24 1
    25    2   25 1
    26    3   26 1
    27    4   27 1
    28    9   28 1
    29    9   29 1
    30    9   30 1
    31   10   31 1
    32   10   32 1
    33   10   33 1
    34   11   34 1
    35   11   35 1
    36   12   36 1
    37   12   37 1
    38   13   38 1
    39   14   39 1
    40   15   40 1
    41   16   41 1
    42   16   42 1
    43   17   43 1
    44   18   44 1
    45   21   45 1
@<TRIPOS>MOLECULE
LIGAND
   45    45     0     0     0
SMALL
NO_CHARGES

@<TRIPOS>ATOM
      1 C1         -0.8688   -1.7203    8.2676 C.ar      1 <0>         0.0000
      2 C2         -0.4721   -1.3756    6.9756 C.ar      1 <0>         0.0000
      3 C3         -1.6746   -0.8524    9.0047 C.ar      1 <0>         0.0000
      4 C4         -1.6869    0.7048    7.1576 C.ar      1 <0>         0.0000
      5 C5         -0.8811   -0.1631    6.4206 C.ar      1 <0>         0.0000
      6 C6         -2.0836    0.3601    8.4497 C.ar      1 <0>         0.0000
      7 C7         -0.4576    0.2036    5.0443 C.2       1 <0>         0.0000
      8 C8          1.9325   -1.0133    2.6768 C.2       1 <0>         0.0000
      9 C9         -3.1756    2.3246   -2.4935 C.3       1 <0>         0.0000
     10 C10        -1.2120    2.4385   -4.0656 C.3       1 <0>         0.0000
     11 C11         1.5761    0.1765   -1.0474 C.3       1 <0>         0.0000
     12 C12         0.4360    0.4372   -2.0380 C.3       1 <0>         0.0000
     13 C13         2.3649   -0.5352    1.2935 C.3       1 <0>         0.0000
     14 C14         1.1534   -0.2750    0.3710 C.3       1 <0>         0.0000
     15 C15        -1.8423    1.7019   -2.8899 C.3       1 <0>         0.0000
     16 N1          0.3597   -1.5080    0.3138 N.3       1 <0>         0.0000
     17 N2          0.7320   -0.3536    4.6161 N.am      1 <0>         0.0000
     18 N3          1.1743   -0.0714    3.3469 N.am      1 <0>         0.0000
     19 O1         -1.1696    0.9461    4.3728 O.2       1 <0>         0.0000
     20 O2          2.2555   -2.1109    3.1269 O.2       1 <0>         0.0000
     21 O3          3.2186   -1.5159    0.7230 O.3       1 <0>         0.0000
     22 S1         -0.7139    1.7277   -1.4786 S.3       1 <0>         0.0000
     23 Cl1        -3.0783    1.4303    9.3596 Cl        1 <0>         0.0000
     24 H1         -0.5505   -2.6646    8.6994 H         1 <0>         0.0000
     25 H2          0.1559   -2.0601    6.4111 H         1 <0>         0.0000
     26 H3         -1.9758   -1.1345   10.0103 H         1 <0>         0.0000
     27 H4         -2.0049    1.6499    6.7219 H         1 <0>         0.0000
     28 H5         -3.0368    3.3747   -2.2131 H         1 <0>         0.0000
     29 H6         -3.8895    2.3010   -3.3245 H         1 <0>         0.0000
     30 H7         -3.6275    1.8123   -1.6365 H         1 <0>         0.0000
     31 H8         -1.0430    3.4904   -3.8095 H         1 <0>         0.0000
     32 H9         -1.8649    2.4183   -4.9453 H         1 <0>         0.0000
     33 H10        -0.2436    2.0085   -4.3458 H         1 <0>         0.0000
     34 H11         2.1631    1.1018   -0.9736 H         1 <0>         0.0000
     35 H12         2.2520   -0.5707   -1.4824 H         1 <0>         0.0000
     36 H13        -0.1421   -0.4839   -2.1668 H         1 <0>         0.0000
     37 H14         0.8216    0.7132   -3.0237 H         1 <0>         0.0000
     38 H15         2.9484    0.3859    1.4229 H         1 <0>         0.0000
     39 H16         0.5249    0.4957    0.8291 H         1 <0>         0.0000
     40 H17        -2.0027    0.6542   -3.1661 H         1 <0>         0.0000
     41 H18        -0.4842   -1.3249   -0.2178 H         1 <0>         0.0000
     42 H19         0.0690   -1.7492    1.2550 H         1 <0>         0.0000
     43 H20         1.2684   -0.9594    5.2274 H         1 <0>         0.0000
     44 H21         0.9480    0.8148    2.9078 H         1 <0>         0.0000
     45 H22         2.7041   -2.3378    0.6655 H         1 <0>         0.0000
@<TRIPOS>BOND
     1    1    2 ar
     2    1    3 ar
     3    2    5 ar
     4    3    6 ar
     5    4    5 ar
     6    4    6 ar
     7    5    7 1
     8    6   23 1
     9    7   17 am
    10    7   19 2
    11    8   13 1
    12    8   18 am
    13    8   20 2
    14    9   15 1
    15   10   15 1
    16   11   12 1
    17   11   14 1
    18   12   22 1
    19   13   14 1
    20   13   21 1
    21   14   16 1
    22   15   22 1
    23   17   18 1
    24    1   24 1
    25    2   25 1
    26    3   26 1
    27    4   27 1
    28    9   28 1
    29    9   29 1
    30    9   30 1
    31   10   31 1
    32   10   32 1
    33   10   33 1
    34   11   34 1
    35   11   35 1
    36   12   36 1
    37   12   37 1
    38   13   38 1
    39   14   39 1
    40   15   40 1
    41   16   41 1
    42   16   42 1
    43   17   43 1
    44   18   44 1
    45   21   45 1
@<TRIPOS>MOLECULE
LIGAND
   45    45     0     0     0
SMALL
NO_CHARGES

@<TRIPOS>ATOM
      1 C1          0.8920   -0.9768    8.9998 C.ar      1 <0>         0.0000
      2 C2          1.2615   -0.6374    7.6984 C.ar      1 <0>         0.0000
      3 C3          1.8715   -1.1910    9.9696 C.ar      1 <0>         0.0000
      4 C4          3.5901   -0.7266    8.3363 C.ar      1 <0>         0.0000
      5 C5          2.6105   -0.5124    7.3666 C.ar      1 <0>         0.0000
      6 C6          3.2205   -1.0660    9.6378 C.ar      1 <0>         0.0000
      7 C7          3.0033   -0.1514    5.9797 C.2       1 <0>         0.0000
      8 C8          1.9325   -1.0133    2.6768 C.2       1 <0>         0.0000
      9 C9          0.2369    5.9907    2.5840 C.3       1 <0>         0.0000
     10 C10         1.4273    4.1074    3.7571 C.3       1 <0>         0.0000
     11 C11         0.2195    0.8307    0.9188 C.3       1 <0>         0.0000
     12 C12         0.8590    2.2074    1.1305 C.3       1 <0>         0.0000
     13 C13         2.3649   -0.5352    1.2935 C.3       1 <0>         0.0000
     14 C14         1.1534   -0.2750    0.3710 C.3       1 <0>         0.0000
     15 C15         0.8895    4.6225    2.4275 C.3       1 <0>         0.0000
     16 N1          1.6681    0.0834   -0.9557 N.3       1 <0>         0.0000
     17 N2          2.1084   -0.5131    4.9911 N.am      1 <0>         0.0000
     18 N3          2.3999   -0.1941    3.6876 N.am      1 <0>         0.0000
     19 O1          4.0607    0.4441    5.7889 O.2       1 <0>         0.0000
     20 O2          1.2610   -2.0296    2.8442 O.2       1 <0>         0.0000
     21 O3          3.2186   -1.5159    0.7230 O.3       1 <0>         0.0000
     22 S1         -0.3102    3.4478    1.7590 S.3       1 <0>         0.0000
     23 Cl1         4.4286   -1.3300   10.8350 Cl        1 <0>         0.0000
     24 H1         -0.1584   -1.0737    9.2581 H         1 <0>         0.0000
     25 H2          0.4891   -0.4730    6.9514 H         1 <0>         0.0000
     26 H3          1.5685   -1.4548   10.9795 H         1 <0>         0.0000
     27 H4          4.6417   -0.6279    8.0747 H         1 <0>         0.0000
     28 H5         -0.5922    5.9375    3.2984 H         1 <0>         0.0000
     29 H6          0.9490    6.7308    2.9659 H         1 <0>         0.0000
     30 H7         -0.1692    6.3609    1.6357 H         1 <0>         0.0000
     31 H8          0.6165    4.0253    4.4896 H         1 <0>         0.0000
     32 H9          2.1764    4.7890    4.1753 H         1 <0>         0.0000
     33 H10         1.8823    3.1153    3.6574 H         1 <0>         0.0000
     34 H11        -0.6259    0.9652    0.2307 H         1 <0>         0.0000
     35 H12        -0.2197    0.5004    1.8688 H         1 <0>         0.0000
     36 H13         1.2423    2.5738    0.1722 H         1 <0>         0.0000
     37 H14         1.7108    2.1489    1.8142 H         1 <0>         0.0000
     38 H15         2.9484    0.3859    1.4229 H         1 <0>         0.0000
     39 H16         0.5915   -1.2082    0.2610 H         1 <0>         0.0000
     40 H17         1.7141    4.6972    1.7106 H         1 <0>         0.0000
     41 H18         0.8845    0.1717   -1.5934 H         1 <0>         0.0000
     42 H19         2.2416   -0.6802   -1.2969 H         1 <0>         0.0000
     43 H20         1.2525   -1.0048    5.2237 H         1 <0>         0.0000
     44 H21         2.9499    0.6302    3.4697 H         1 <0>         0.0000
     45 H22         2.7041   -2.3378    0.6655 H         1 <0>         0.0000
@<TRIPOS>BOND
     1    1    2 ar
     2    1    3 ar
     3    2    5 ar
     4    3    6 ar
     5    4    5 ar
     6    4    6 ar
     7    5    7 1
     8    6   23 1
     9    7   17 am
    10    7   19 2
    11    8   13 1
    12    8   18 am
    13    8   20 2
    14    9   15 1
    15   10   15 1
    16   11   12 1
    17   11   14 1
    18   12   22 1
    19   13   14 1
    20   13   21 1
    21   14   16 1
    22   15   22 1
    23   17   18 1
    24    1   24 1
    25    2   25 1
    26    3   26 1
    27    4   27 1
    28    9   28 1
    29    9   29 1
    30    9   30 1
    31   10   31 1
    32   10   32 1
    33   10   33 1
    34   11   34 1
    35   11   35 1
    36   12   36 1
    37   12   37 1
    38   13   38 1
    39   14   39 1
    40   15   40 1
    41   16   41 1
    42   16   42 1
    43   17   43 1
    44   18   44 1
    45   21   45 1
@<TRIPOS>MOLECULE
LIGAND
   45    45     0     0     0
SMALL
NO_CHARGES

@<TRIPOS>ATOM
      1 C1         -0.7874   -0.7484    8.5279 C.ar      1 <0>         0.0000
      2 C2         -0.4100   -0.4763    7.2130 C.ar      1 <0>         0.0000
      3 C3         -1.6489   -1.8111    8.8006 C.ar      1 <0>         0.0000
      4 C4         -1.7555   -2.3295    6.4433 C.ar      1 <0>         0.0000
      5 C5         -0.8940   -1.2668    6.1707 C.ar      1 <0>         0.0000
      6 C6         -2.1330   -2.6016    7.7583 C.ar      1 <0>         0.0000
      7 C7         -0.4919   -0.9759    4.7701 C.2       1 <0>         0.0000
      8 C8          1.9325   -1.0133    2.6768 C.2       1 <0>         0.0000
      9 C9          0.2249   -1.3614   -4.8293 C.3       1 <0>         0.0000
     10 C10         2.4955   -0.4691   -5.4530 C.3       1 <0>         0.0000
     11 C11         1.5761    0.1765   -1.0474 C.3       1 <0>         0.0000
     12 C12         0.4360    0.4372   -2.0380 C.3       1 <0>         0.0000
     13 C13         2.3649   -0.5352    1.2935 C.3       1 <0>         0.0000
     14 C14         1.1534   -0.2750    0.3710 C.3       1 <0>         0.0000
     15 C15         1.4734   -0.6402   -4.3356 C.3       1 <0>         0.0000
     16 N1          0.3597   -1.5080    0.3138 N.3       1 <0>         0.0000
     17 N2          0.7320   -0.3536    4.6161 N.am      1 <0>         0.0000
     18 N3          1.1743   -0.0714    3.3469 N.am      1 <0>         0.0000
     19 O1         -1.2351   -1.3059    3.8493 O.2       1 <0>         0.0000
     20 O2          2.2555   -2.1109    3.1269 O.2       1 <0>         0.0000
     21 O3          3.2186   -1.5159    0.7230 O.3       1 <0>         0.0000
     22 S1          1.0200    0.9781   -3.6711 S.3       1 <0>         0.0000
     23 Cl1        -3.1956   -3.9130    8.0955 Cl        1 <0>         0.0000
     24 H1         -0.4102   -0.1330    9.3393 H         1 <0>         0.0000
     25 H2          0.2618    0.3545    7.0131 H         1 <0>         0.0000
     26 H3         -1.9343   -2.0111    9.8301 H         1 <0>         0.0000
     27 H4         -2.1312   -2.9448    5.6282 H         1 <0>         0.0000
     28 H5         -0.2418   -0.7988   -5.6457 H         1 <0>         0.0000
     29 H6          0.4667   -2.3574   -5.2167 H         1 <0>         0.0000
     30 H7         -0.5235   -1.4725   -4.0365 H         1 <0>         0.0000
     31 H8          2.0637    0.1071   -6.2789 H         1 <0>         0.0000
     32 H9          2.8077   -1.4375   -5.8596 H         1 <0>         0.0000
     33 H10         3.3894    0.0650   -5.1112 H         1 <0>         0.0000
     34 H11         2.1631    1.1018   -0.9736 H         1 <0>         0.0000
     35 H12         2.2520   -0.5707   -1.4824 H         1 <0>         0.0000
     36 H13        -0.2073    1.2295   -1.6408 H         1 <0>         0.0000
     37 H14        -0.1907   -0.4501   -2.1649 H         1 <0>         0.0000
     38 H15         2.9484    0.3859    1.4229 H         1 <0>         0.0000
     39 H16         0.5249    0.4957    0.8291 H         1 <0>         0.0000
     40 H17         1.9240   -1.2177   -3.5214 H         1 <0>         0.0000
     41 H18        -0.4842   -1.3249   -0.2178 H         1 <0>         0.0000
     42 H19         0.0690   -1.7492    1.2550 H         1 <0>         0.0000
     43 H20         1.2931   -0.1098    5.4249 H         1 <0>         0.0000
     44 H21         0.9480    0.8148    2.9078 H         1 <0>         0.0000
     45 H22         2.7041   -2.3378    0.6655 H         1 <0>         0.0000
@<TRIPOS>BOND
     1    1    2 ar
     2    1    3 ar
     3    2    5 ar
     4    3    6 ar
     5    4    5 ar
     6    4    6 ar
     7    5    7 1
     8    6   23 1
     9    7   17 am
    10    7   19 2
    11    8   13 1
    12    8   18 am
    13    8   20 2
    14    9   15 1
    15   10   15 1
    16   11   12 1
    17   11   14 1
    18   12   22 1
    19   13   14 1
    20   13   21 1
    21   14   16 1
    22   15   22 1
    23   17   18 1
    24    1   24 1
    25    2   25 1
    26    3   26 1
    27    4   27 1
    28    9   28 1
    29    9   29 1
    30    9   30 1
    31   10   31 1
    32   10   32 1
    33   10   33 1
    34   11   34 1
    35   11   35 1
    36   12   36 1
    37   12   37 1
    38   13   38 1
    39   14   39 1
    40   15   40 1
    41   16   41 1
    42   16   42 1
    43   17   43 1
    44   18   44 1
    45   21   45 1
@<TRIPOS>MOLECULE
LIGAND
   45    45     0     0     0
SMALL
NO_CHARGES

@<TRIPOS>ATOM
      1 C1         -0.2456    0.9322    9.2201 C.ar      1 <0>         0.0000
      2 C2          0.1058    1.2906    7.9187 C.ar      1 <0>         0.0000
      3 C3         -0.3840   -0.4137    9.5596 C.ar      1 <0>         0.0000
      4 C4          0.1802   -1.0427    7.2962 C.ar      1 <0>         0.0000
      5 C5          0.3186    0.3032    6.9567 C.ar      1 <0>         0.0000
      6 C6         -0.1712   -1.4011    8.5976 C.ar      1 <0>         0.0000
      7 C7          0.6923    0.6859    5.5704 C.2       1 <0>         0.0000
      8 C8          1.9325   -1.0133    2.6768 C.2       1 <0>         0.0000
      9 C9          0.9992    5.4655    0.4702 C.3       1 <0>         0.0000
     10 C10         0.2949    5.8734    2.8530 C.3       1 <0>         0.0000
     11 C11         0.2195    0.8307    0.9188 C.3       1 <0>         0.0000
     12 C12         0.8590    2.2074    1.1305 C.3       1 <0>         0.0000
     13 C13         2.3649   -0.5352    1.2935 C.3       1 <0>         0.0000
     14 C14         1.1534   -0.2750    0.3710 C.3       1 <0>         0.0000
     15 C15         0.8241    4.8515    1.8540 C.3       1 <0>         0.0000
     16 N1          1.6681    0.0834   -0.9557 N.3       1 <0>         0.0000
     17 N2          1.4238   -0.2520    4.8674 N.am      1 <0>         0.0000
     18 N3          1.7877    0.0290    3.5734 N.am      1 <0>         0.0000
     19 O1          0.3313    1.7736    5.1279 O.2       1 <0>         0.0000
     20 O2          1.7602   -2.2018    2.9407 O.2       1 <0>         0.0000
     21 O3          3.2186   -1.5159    0.7230 O.3       1 <0>         0.0000
     22 S1         -0.3102    3.4478    1.7590 S.3       1 <0>         0.0000
     23 Cl1        -0.3417   -3.0616    9.0174 Cl        1 <0>         0.0000
     24 H1         -0.4110    1.7011    9.9690 H         1 <0>         0.0000
     25 H2          0.2105    2.3426    7.6662 H         1 <0>         0.0000
     26 H3         -0.6583   -0.6779   10.5776 H         1 <0>         0.0000
     27 H4          0.3474   -1.8109    6.5438 H         1 <0>         0.0000
     28 H5          0.0422    5.8509    0.1009 H         1 <0>         0.0000
     29 H6          1.7019    6.3059    0.4928 H         1 <0>         0.0000
     30 H7          1.3622    4.7326   -0.2594 H         1 <0>         0.0000
     31 H8         -0.6729    6.2651    2.5204 H         1 <0>         0.0000
     32 H9          0.9758    6.7263    2.9496 H         1 <0>         0.0000
     33 H10         0.1486    5.4355    3.8470 H         1 <0>         0.0000
     34 H11        -0.6259    0.9652    0.2307 H         1 <0>         0.0000
     35 H12        -0.2197    0.5004    1.8688 H         1 <0>         0.0000
     36 H13         1.2423    2.5738    0.1722 H         1 <0>         0.0000
     37 H14         1.7108    2.1489    1.8142 H         1 <0>         0.0000
     38 H15         2.9484    0.3859    1.4229 H         1 <0>         0.0000
     39 H16         0.5915   -1.2082    0.2610 H         1 <0>         0.0000
     40 H17         1.7903    4.4730    2.2043 H         1 <0>         0.0000
     41 H18         0.8845    0.1717   -1.5934 H         1 <0>         0.0000
     42 H19         2.2416   -0.6802   -1.2969 H         1 <0>         0.0000
     43 H20         1.6871   -1.1312    5.2989 H         1 <0>         0.0000
     44 H21         1.9478    0.9869    3.2798 H         1 <0>         0.0000
     45 H22         2.7041   -2.3378    0.6655 H         1 <0>         0.0000
@<TRIPOS>BOND
     1    1    2 ar
     2    1    3 ar
     3    2    5 ar
     4    3    6 ar
     5    4    5 ar
     6    4    6 ar
     7    5    7 1
     8    6   23 1
     9    7   17 am
    10    7   19 2
    11    8   13 1
    12    8   18 am
    13    8   20 2
    14    9   15 1
    15   10   15 1
    16   11   12 1
    17   11   14 1
    18   12   22 1
    19   13   14 1
    20   13   21 1
    21   14   16 1
    22   15   22 1
    23   17   18 1
    24    1   24 1
    25    2   25 1
    26    3   26 1
    27    4   27 1
    28    9   28 1
    29    9   29 1
    30    9   30 1
    31   10   31 1
    32   10   32 1
    33   10   33 1
    34   11   34 1
    35   11   35 1
    36   12   36 1
    37   12   37 1
    38   13   38 1
    39   14   39 1
    40   15   40 1
    41   16   41 1
    42   16   42 1
    43   17   43 1
    44   18   44 1
    45   21   45 1
@<TRIPOS>MOLECULE
LIGAND
   45    45     0     0     0
SMALL
NO_CHARGES

@<TRIPOS>ATOM
      1 C1         -0.1150    0.7489    9.2206 C.ar      1 <0>         0.0000
      2 C2          0.3538    1.1052    7.9561 C.ar      1 <0>         0.0000
      3 C3         -0.8842   -0.4037    9.3801 C.ar      1 <0>         0.0000
      4 C4         -0.7161   -0.8438    7.0105 C.ar      1 <0>         0.0000
      5 C5          0.0532    0.3088    6.8511 C.ar      1 <0>         0.0000
      6 C6         -1.1848   -1.2000    8.2751 C.ar      1 <0>         0.0000
      7 C7          0.5524    0.6894    5.5043 C.2       1 <0>         0.0000
      8 C8          1.9325   -1.0133    2.6768 C.2       1 <0>         0.0000
      9 C9          2.4151    5.4477   -0.0931 C.3       1 <0>         0.0000
     10 C10         3.6045    3.5739    1.0963 C.3       1 <0>         0.0000
     11 C11         1.5761    0.1765   -1.0474 C.3       1 <0>         0.0000
     12 C12         2.3784    1.4800   -1.1273 C.3       1 <0>         0.0000
     13 C13         2.3649   -0.5352    1.2935 C.3       1 <0>         0.0000
     14 C14         1.1534   -0.2750    0.3710 C.3       1 <0>         0.0000
     15 C15         2.8874    4.0013   -0.1787 C.3       1 <0>         0.0000
     16 N1          0.3597   -1.5080    0.3138 N.3       1 <0>         0.0000
     17 N2          0.7320   -0.3536    4.6161 N.am      1 <0>         0.0000
     18 N3          1.1743   -0.0714    3.3469 N.am      1 <0>         0.0000
     19 O1          0.7587    1.8736    5.2510 O.2       1 <0>         0.0000
     20 O2          2.2555   -2.1109    3.1269 O.2       1 <0>         0.0000
     21 O3          3.2186   -1.5159    0.7230 O.3       1 <0>         0.0000
     22 S1          1.4741    2.9151   -0.4766 S.3       1 <0>         0.0000
     23 Cl1        -2.1337   -2.6224    8.4727 Cl        1 <0>         0.0000
     24 H1          0.1194    1.3689   10.0809 H         1 <0>         0.0000
     25 H2          0.9522    2.0057    7.8445 H         1 <0>         0.0000
     26 H3         -1.2425   -0.6686   10.3715 H         1 <0>         0.0000
     27 H4         -0.9486   -1.4634    6.1467 H         1 <0>         0.0000
     28 H5          1.7293    5.5747    0.7520 H         1 <0>         0.0000
     29 H6          3.2556    6.1330    0.0636 H         1 <0>         0.0000
     30 H7          1.8820    5.7580   -0.9990 H         1 <0>         0.0000
     31 H8          2.9369    3.6722    1.9597 H         1 <0>         0.0000
     32 H9          4.4819    4.2010    1.2898 H         1 <0>         0.0000
     33 H10         3.9317    2.5289    1.0507 H         1 <0>         0.0000
     34 H11         2.1843   -0.6108   -1.5125 H         1 <0>         0.0000
     35 H12         0.6847    0.2765   -1.6798 H         1 <0>         0.0000
     36 H13         2.6151    1.6893   -2.1758 H         1 <0>         0.0000
     37 H14         3.3304    1.3937   -0.5957 H         1 <0>         0.0000
     38 H15         2.9484    0.3859    1.4229 H         1 <0>         0.0000
     39 H16         0.5249    0.4957    0.8291 H         1 <0>         0.0000
     40 H17         3.5706    3.8957   -1.0281 H         1 <0>         0.0000
     41 H18        -0.4842   -1.3249   -0.2178 H         1 <0>         0.0000
     42 H19         0.0690   -1.7492    1.2550 H         1 <0>         0.0000
     43 H20         0.5409   -1.3094    4.8961 H         1 <0>         0.0000
     44 H21         0.9480    0.8148    2.9078 H         1 <0>         0.0000
     45 H22         2.7041   -2.3378    0.6655 H         1 <0>         0.0000
@<TRIPOS>BOND
     1    1    2 ar
     2    1    3 ar
     3    2    5 ar
     4    3    6 ar
     5    4    5 ar
     6    4    6 ar
     7    5    7 1
     8    6   23 1
     9    7   17 am
    10    7   19 2
    11    8   13 1
    12    8   18 am
    13    8   20 2
    14    9   15 1
    15   10   15 1
    16   11   12 1
    17   11   14 1
    18   12   22 1
    19   13   14 1
    20   13   21 1
    21   14   16 1
    22   15   22 1
    23   17   18 1
    24    1   24 1
    25    2   25 1
    26    3   26 1
    27    4   27 1
    28    9   28 1
    29    9   29 1
    30    9   30 1
    31   10   31 1
    32   10   32 1
    33   10   33 1
    34   11   34 1
    35   11   35 1
    36   12   36 1
    37   12   37 1
    38   13   38 1
    39   14   39 1
    40   15   40 1
    41   16   41 1
    42   16   42 1
    43   17   43 1
    44   18   44 1
    45   21   45 1
@<TRIPOS>MOLECULE
LIGAND
   45    45     0     0     0
SMALL
NO_CHARGES

@<TRIPOS>ATOM
      1 C1         -0.9982   -4.7984    7.0345 C.ar      1 <0>         0.0000
      2 C2         -0.5646   -4.1991    5.8520 C.ar      1 <0>         0.0000
      3 C3         -1.8801   -4.1214    7.8770 C.ar      1 <0>         0.0000
      4 C4         -1.8946   -2.2457    6.3543 C.ar      1 <0>         0.0000
      5 C5         -1.0128   -2.9227    5.5119 C.ar      1 <0>         0.0000
      6 C6         -2.3282   -2.8450    7.5369 C.ar      1 <0>         0.0000
      7 C7         -0.5498   -2.2848    4.2523 C.2       1 <0>         0.0000
      8 C8          1.9325   -1.0133    2.6768 C.2       1 <0>         0.0000
      9 C9         -4.0623    0.8550    1.3177 C.3       1 <0>         0.0000
     10 C10        -3.5584   -1.5885    1.6583 C.3       1 <0>         0.0000
     11 C11         0.2195    0.8307    0.9188 C.3       1 <0>         0.0000
     12 C12        -1.0001    1.1700    0.0549 C.3       1 <0>         0.0000
     13 C13         2.3649   -0.5352    1.2935 C.3       1 <0>         0.0000
     14 C14         1.1534   -0.2750    0.3710 C.3       1 <0>         0.0000
     15 C15        -2.9754   -0.2124    1.3599 C.3       1 <0>         0.0000
     16 N1          1.6681    0.0834   -0.9557 N.3       1 <0>         0.0000
     17 N2          0.6851   -2.6985    3.7909 N.am      1 <0>         0.0000
     18 N3          1.1665   -2.1628    2.6216 N.am      1 <0>         0.0000
     19 O1         -1.2703   -1.4609    3.6944 O.2       1 <0>         0.0000
     20 O2          2.2299   -0.4108    3.7066 O.2       1 <0>         0.0000
     21 O3          3.2186   -1.5159    0.7230 O.3       1 <0>         0.0000
     22 S1         -2.0977   -0.2515   -0.2193 S.3       1 <0>         0.0000
     23 Cl1        -3.4168   -2.0104    8.5766 Cl        1 <0>         0.0000
     24 H1         -0.6495   -5.7923    7.2990 H         1 <0>         0.0000
     25 H2          0.1227   -4.7366    5.2037 H         1 <0>         0.0000
     26 H3         -2.2094   -4.6010    8.7951 H         1 <0>         0.0000
     27 H4         -2.2430   -1.2503    6.0862 H         1 <0>         0.0000
     28 H5         -4.8019    0.6148    0.5457 H         1 <0>         0.0000
     29 H6         -4.5966    0.9180    2.2722 H         1 <0>         0.0000
     30 H7         -3.6542    1.8453    1.0855 H         1 <0>         0.0000
     31 H8         -4.2902   -1.8663    0.8915 H         1 <0>         0.0000
     32 H9         -4.0769   -1.6012    2.6234 H         1 <0>         0.0000
     33 H10        -2.7856   -2.3656    1.6725 H         1 <0>         0.0000
     34 H11        -0.1531    0.5335    1.9082 H         1 <0>         0.0000
     35 H12         0.7975    1.7493    1.0822 H         1 <0>         0.0000
     36 H13        -0.6573    1.5138   -0.9268 H         1 <0>         0.0000
     37 H14        -1.5832    1.9849    0.4933 H         1 <0>         0.0000
     38 H15         2.9484    0.3859    1.4229 H         1 <0>         0.0000
     39 H16         0.5915   -1.2082    0.2610 H         1 <0>         0.0000
     40 H17        -2.2476    0.0460    2.1366 H         1 <0>         0.0000
     41 H18         0.8845    0.1717   -1.5934 H         1 <0>         0.0000
     42 H19         2.2416   -0.6802   -1.2969 H         1 <0>         0.0000
     43 H20         1.2257   -3.3847    4.3060 H         1 <0>         0.0000
     44 H21         0.9630   -2.6038    1.7309 H         1 <0>         0.0000
     45 H22         2.7041   -2.3378    0.6655 H         1 <0>         0.0000
@<TRIPOS>BOND
     1    1    2 ar
     2    1    3 ar
     3    2    5 ar
     4    3    6 ar
     5    4    5 ar
     6    4    6 ar
     7    5    7 1
     8    6   23 1
     9    7   17 am
    10    7   19 2
    11    8   13 1
    12    8   18 am
    13    8   20 2
    14    9   15 1
    15   10   15 1
    16   11   12 1
    17   11   14 1
    18   12   22 1
    19   13   14 1
    20   13   21 1
    21   14   16 1
    22   15   22 1
    23   17   18 1
    24    1   24 1
    25    2   25 1
    26    3   26 1
    27    4   27 1
    28    9   28 1
    29    9   29 1
    30    9   30 1
    31   10   31 1
    32   10   32 1
    33   10   33 1
    34   11   34 1
    35   11   35 1
    36   12   36 1
    37   12   37 1
    38   13   38 1
    39   14   39 1
    40   15   40 1
    41   16   41 1
    42   16   42 1
    43   17   43 1
    44   18   44 1
    45   21   45 1
@<TRIPOS>MOLECULE
LIGAND
   45    45     0     0     0
SMALL
NO_CHARGES

@<TRIPOS>ATOM
      1 C1          1.3691   -2.5452    8.7036 C.ar      1 <0>         0.0000
      2 C2          1.5963   -2.0804    7.4082 C.ar      1 <0>         0.0000
      3 C3          1.1963   -1.6386    9.7496 C.ar      1 <0>         0.0000
      4 C4          1.4779    0.1975    8.2048 C.ar      1 <0>         0.0000
      5 C5          1.6507   -0.7090    7.1588 C.ar      1 <0>         0.0000
      6 C6          1.2507   -0.2673    9.5002 C.ar      1 <0>         0.0000
      7 C7          1.8934   -0.2148    5.7787 C.2       1 <0>         0.0000
      8 C8          1.9325   -1.0133    2.6768 C.2       1 <0>         0.0000
      9 C9          1.2774    4.2514    3.3007 C.3       1 <0>         0.0000
     10 C10        -1.1278    3.9215    3.9688 C.3       1 <0>         0.0000
     11 C11         0.2195    0.8307    0.9188 C.3       1 <0>         0.0000
     12 C12         0.6810    2.2745    0.6917 C.3       1 <0>         0.0000
     13 C13         2.3649   -0.5352    1.2935 C.3       1 <0>         0.0000
     14 C14         1.1534   -0.2750    0.3710 C.3       1 <0>         0.0000
     15 C15         0.0131    3.4276    3.0875 C.3       1 <0>         0.0000
     16 N1          1.6681    0.0834   -0.9557 N.3       1 <0>         0.0000
     17 N2          2.6023   -1.0670    4.9540 N.am      1 <0>         0.0000
     18 N3          2.8469   -0.6810    3.6590 N.am      1 <0>         0.0000
     19 O1          1.4534    0.8829    5.4461 O.2       1 <0>         0.0000
     20 O2          0.8915   -1.6405    2.8632 O.2       1 <0>         0.0000
     21 O3          3.2186   -1.5159    0.7230 O.3       1 <0>         0.0000
     22 S1         -0.4802    3.5064    1.3507 S.3       1 <0>         0.0000
     23 Cl1         1.0368    0.8507   10.7913 Cl        1 <0>         0.0000
     24 H1          1.3265   -3.6129    8.8975 H         1 <0>         0.0000
     25 H2          1.7296   -2.7965    6.6014 H         1 <0>         0.0000
     26 H3          1.0200   -2.0156   10.7537 H         1 <0>         0.0000
     27 H4          1.5203    1.2667    8.0072 H         1 <0>         0.0000
     28 H5          1.0885    5.3055    3.0685 H         1 <0>         0.0000
     29 H6          1.6142    4.2026    4.3422 H         1 <0>         0.0000
     30 H7          2.0982    3.9147    2.6572 H         1 <0>         0.0000
     31 H8         -1.3537    4.9705    3.7469 H         1 <0>         0.0000
     32 H9         -0.8656    3.8623    5.0311 H         1 <0>         0.0000
     33 H10        -2.0468    3.3461    3.8086 H         1 <0>         0.0000
     34 H11        -0.7725    0.7284    0.4588 H         1 <0>         0.0000
     35 H12         0.0656    0.6790    1.9948 H         1 <0>         0.0000
     36 H13         0.7739    2.4540   -0.3847 H         1 <0>         0.0000
     37 H14         1.6670    2.4502    1.1313 H         1 <0>         0.0000
     38 H15         2.9484    0.3859    1.4229 H         1 <0>         0.0000
     39 H16         0.5915   -1.2082    0.2610 H         1 <0>         0.0000
     40 H17         0.2228    2.3791    3.3246 H         1 <0>         0.0000
     41 H18         0.8845    0.1717   -1.5934 H         1 <0>         0.0000
     42 H19         2.2416   -0.6802   -1.2969 H         1 <0>         0.0000
     43 H20         2.9356   -1.9607    5.2985 H         1 <0>         0.0000
     44 H21         3.6858   -0.1599    3.4266 H         1 <0>         0.0000
     45 H22         2.7041   -2.3378    0.6655 H         1 <0>         0.0000
@<TRIPOS>BOND
     1    1    2 ar
     2    1    3 ar
     3    2    5 ar
     4    3    6 ar
     5    4    5 ar
     6    4    6 ar
     7    5    7 1
     8    6   23 1
     9    7   17 am
    10    7   19 2
    11    8   13 1
    12    8   18 am
    13    8   20 2
    14    9   15 1
    15   10   15 1
    16   11   12 1
    17   11   14 1
    18   12   22 1
    19   13   14 1
    20   13   21 1
    21   14   16 1
    22   15   22 1
    23   17   18 1
    24    1   24 1
    25    2   25 1
    26    3   26 1
    27    4   27 1
    28    9   28 1
    29    9   29 1
    30    9   30 1
    31   10   31 1
    32   10   32 1
    33   10   33 1
    34   11   34 1
    35   11   35 1
    36   12   36 1
    37   12   37 1
    38   13   38 1
    39   14   39 1
    40   15   40 1
    41   16   41 1
    42   16   42 1
    43   17   43 1
    44   18   44 1
    45   21   45 1
@<TRIPOS>MOLECULE
LIGAND
   45    45     0     0     0
SMALL
NO_CHARGES

@<TRIPOS>ATOM
      1 C1          3.9068   -1.8228    9.5212 C.ar      1 <0>         0.0000
      2 C2          4.2280   -1.4546    8.2148 C.ar      1 <0>         0.0000
      3 C3          2.6909   -2.4514    9.7897 C.ar      1 <0>         0.0000
      4 C4          2.1173   -2.3434    7.4453 C.ar      1 <0>         0.0000
      5 C5          3.3333   -1.7148    7.1768 C.ar      1 <0>         0.0000
      6 C6          1.7961   -2.7117    8.7518 C.ar      1 <0>         0.0000
      7 C7          3.6760   -1.3216    5.7855 C.2       1 <0>         0.0000
      8 C8          1.9325   -1.0133    2.6768 C.2       1 <0>         0.0000
      9 C9         -4.7601    2.7149    0.5929 C.3       1 <0>         0.0000
     10 C10        -3.4472    2.6704   -1.5553 C.3       1 <0>         0.0000
     11 C11         0.2195    0.8307    0.9188 C.3       1 <0>         0.0000
     12 C12        -1.0001    1.1700    0.0549 C.3       1 <0>         0.0000
     13 C13         2.3649   -0.5352    1.2935 C.3       1 <0>         0.0000
     14 C14         1.1534   -0.2750    0.3710 C.3       1 <0>         0.0000
     15 C15        -3.5656    2.1167   -0.1405 C.3       1 <0>         0.0000
     16 N1          1.6681    0.0834   -0.9557 N.3       1 <0>         0.0000
     17 N2          2.6023   -1.0670    4.9540 N.am      1 <0>         0.0000
     18 N3          2.8469   -0.6810    3.6590 N.am      1 <0>         0.0000
     19 O1          4.8567   -1.2304    5.4589 O.2       1 <0>         0.0000
     20 O2          0.8915   -1.6405    2.8632 O.2       1 <0>         0.0000
     21 O3          3.2186   -1.5159    0.7230 O.3       1 <0>         0.0000
     22 S1         -2.0492    2.4644    0.7791 S.3       1 <0>         0.0000
     23 Cl1         0.2961   -3.4877    9.0838 Cl        1 <0>         0.0000
     24 H1          4.6037   -1.6204   10.3291 H         1 <0>         0.0000
     25 H2          5.1785   -0.9653    8.0180 H         1 <0>         0.0000
     26 H3          2.4542   -2.7326   10.8127 H         1 <0>         0.0000
     27 H4          1.4214   -2.5457    6.6335 H         1 <0>         0.0000
     28 H5         -4.6637    3.8047    0.6519 H         1 <0>         0.0000
     29 H6         -5.6983    2.4987    0.0696 H         1 <0>         0.0000
     30 H7         -4.8423    2.3359    1.6179 H         1 <0>         0.0000
     31 H8         -3.3306    3.7597   -1.5293 H         1 <0>         0.0000
     32 H9         -4.3446    2.4528   -2.1452 H         1 <0>         0.0000
     33 H10        -2.5797    2.2592   -2.0841 H         1 <0>         0.0000
     34 H11        -0.1531    0.5335    1.9082 H         1 <0>         0.0000
     35 H12         0.7975    1.7493    1.0822 H         1 <0>         0.0000
     36 H13        -1.6176    0.2727   -0.0585 H         1 <0>         0.0000
     37 H14        -0.7009    1.4813   -0.9501 H         1 <0>         0.0000
     38 H15         2.9484    0.3859    1.4229 H         1 <0>         0.0000
     39 H16         0.5915   -1.2082    0.2610 H         1 <0>         0.0000
     40 H17        -3.6811    1.0287   -0.1886 H         1 <0>         0.0000
     41 H18         0.8845    0.1717   -1.5934 H         1 <0>         0.0000
     42 H19         2.2416   -0.6802   -1.2969 H         1 <0>         0.0000
     43 H20         1.6516   -1.1634    5.2936 H         1 <0>         0.0000
     44 H21         3.6858   -0.1599    3.4266 H         1 <0>         0.0000
     45 H22         2.7041   -2.3378    0.6655 H         1 <0>         0.0000
@<TRIPOS>BOND
     1    1    2 ar
     2    1    3 ar
     3    2    5 ar
     4    3    6 ar
     5    4    5 ar
     6    4    6 ar
     7    5    7 1
     8    6   23 1
     9    7   17 am
    10    7   19 2
    11    8   13 1
    12    8   18 am
    13    8   20 2
    14    9   15 1
    15   10   15 1
    16   11   12 1
    17   11   14 1
    18   12   22 1
    19   13   14 1
    20   13   21 1
    21   14   16 1
    22   15   22 1
    23   17   18 1
    24    1   24 1
    25    2   25 1
    26    3   26 1
    27    4   27 1
    28    9   28 1
    29    9   29 1
    30    9   30 1
    31   10   31 1
    32   10   32 1
    33   10   33 1
    34   11   34 1
    35   11   35 1
    36   12   36 1
    37   12   37 1
    38   13   38 1
    39   14   39 1
    40   15   40 1
    41   16   41 1
    42   16   42 1
    43   17   43 1
    44   18   44 1
    45   21   45 1
@<TRIPOS>MOLECULE
LIGAND
   45    45     0     0     0
SMALL
NO_CHARGES

@<TRIPOS>ATOM
      1 C1         -0.2959   -1.7283    8.4655 C.ar      1 <0>         0.0000
      2 C2          0.0807   -1.4558    7.1504 C.ar      1 <0>         0.0000
      3 C3         -1.6473   -1.8121    8.8008 C.ar      1 <0>         0.0000
      4 C4         -2.2454   -1.3505    6.5060 C.ar      1 <0>         0.0000
      5 C5         -0.8940   -1.2668    6.1707 C.ar      1 <0>         0.0000
      6 C6         -2.6221   -1.6232    7.8211 C.ar      1 <0>         0.0000
      7 C7         -0.4919   -0.9759    4.7701 C.2       1 <0>         0.0000
      8 C8          1.9325   -1.0133    2.6768 C.2       1 <0>         0.0000
      9 C9          1.1606    4.0721   -2.8209 C.3       1 <0>         0.0000
     10 C10         1.1711    2.6068   -4.8686 C.3       1 <0>         0.0000
     11 C11         1.5761    0.1765   -1.0474 C.3       1 <0>         0.0000
     12 C12         2.3784    1.4800   -1.1273 C.3       1 <0>         0.0000
     13 C13         2.3649   -0.5352    1.2935 C.3       1 <0>         0.0000
     14 C14         1.1534   -0.2750    0.3710 C.3       1 <0>         0.0000
     15 C15         1.2741    2.6470   -3.3486 C.3       1 <0>         0.0000
     16 N1          0.3597   -1.5080    0.3138 N.3       1 <0>         0.0000
     17 N2          0.7320   -0.3536    4.6161 N.am      1 <0>         0.0000
     18 N3          1.1743   -0.0714    3.3469 N.am      1 <0>         0.0000
     19 O1         -1.2351   -1.3059    3.8493 O.2       1 <0>         0.0000
     20 O2          2.2555   -2.1109    3.1269 O.2       1 <0>         0.0000
     21 O3          3.2186   -1.5159    0.7230 O.3       1 <0>         0.0000
     22 S1          2.8465    1.9264   -2.8249 S.3       1 <0>         0.0000
     23 Cl1        -4.2894   -1.7271    8.2355 Cl        1 <0>         0.0000
     24 H1          0.4631   -1.8757    9.2280 H         1 <0>         0.0000
     25 H2          1.1369   -1.3929    6.9013 H         1 <0>         0.0000
     26 H3         -1.9258   -2.0251    9.8297 H         1 <0>         0.0000
     27 H4         -3.0036   -1.2033    5.7395 H         1 <0>         0.0000
     28 H5          1.9558    4.6980   -3.2410 H         1 <0>         0.0000
     29 H6          0.2046    4.5270   -3.1034 H         1 <0>         0.0000
     30 H7          1.2520    4.1126   -1.7295 H         1 <0>         0.0000
     31 H8          1.9665    3.2101   -5.3202 H         1 <0>         0.0000
     32 H9          0.2154    3.0160   -5.2145 H         1 <0>         0.0000
     33 H10         1.2700    1.5872   -5.2582 H         1 <0>         0.0000
     34 H11         2.1843   -0.6108   -1.5125 H         1 <0>         0.0000
     35 H12         0.6847    0.2765   -1.6798 H         1 <0>         0.0000
     36 H13         3.3029    1.3655   -0.5514 H         1 <0>         0.0000
     37 H14         1.8267    2.3139   -0.6838 H         1 <0>         0.0000
     38 H15         2.9484    0.3859    1.4229 H         1 <0>         0.0000
     39 H16         0.5249    0.4957    0.8291 H         1 <0>         0.0000
     40 H17         0.4716    2.0389   -2.9175 H         1 <0>         0.0000
     41 H18        -0.4842   -1.3249   -0.2178 H         1 <0>         0.0000
     42 H19         0.0690   -1.7492    1.2550 H         1 <0>         0.0000
     43 H20         1.2931   -0.1098    5.4249 H         1 <0>         0.0000
     44 H21         0.9480    0.8148    2.9078 H         1 <0>         0.0000
     45 H22         2.7041   -2.3378    0.6655 H         1 <0>         0.0000
@<TRIPOS>BOND
     1    1    2 ar
     2    1    3 ar
     3    2    5 ar
     4    3    6 ar
     5    4    5 ar
     6    4    6 ar
     7    5    7 1
     8    6   23 1
     9    7   17 am
    10    7   19 2
    11    8   13 1
    12    8   18 am
    13    8   20 2
    14    9   15 1
    15   10   15 1
    16   11   12 1
    17   11   14 1
    18   12   22 1
    19   13   14 1
    20   13   21 1
    21   14   16 1
    22   15   22 1
    23   17   18 1
    24    1   24 1
    25    2   25 1
    26    3   26 1
    27    4   27 1
    28    9   28 1
    29    9   29 1
    30    9   30 1
    31   10   31 1
    32   10   32 1
    33   10   33 1
    34   11   34 1
    35   11   35 1
    36   12   36 1
    37   12   37 1
    38   13   38 1
    39   14   39 1
    40   15   40 1
    41   16   41 1
    42   16   42 1
    43   17   43 1
    44   18   44 1
    45   21   45 1
@<TRIPOS>MOLECULE
LIGAND
   45    45     0     0     0
SMALL
NO_CHARGES

@<TRIPOS>ATOM
      1 C1          0.9205   -1.8510    8.8077 C.ar      1 <0>         0.0000
      2 C2          1.2701   -1.5831    7.4842 C.ar      1 <0>         0.0000
      3 C3          1.9107   -2.1474    9.7444 C.ar      1 <0>         0.0000
      4 C4          3.6002   -1.9080    8.0341 C.ar      1 <0>         0.0000
      5 C5          2.6100   -1.6117    7.0974 C.ar      1 <0>         0.0000
      6 C6          3.2505   -2.1759    9.3576 C.ar      1 <0>         0.0000
      7 C7          2.9815   -1.3268    5.6872 C.2       1 <0>         0.0000
      8 C8          1.9325   -1.0133    2.6768 C.2       1 <0>         0.0000
      9 C9         -4.7601    2.7149    0.5929 C.3       1 <0>         0.0000
     10 C10        -3.4472    2.6704   -1.5553 C.3       1 <0>         0.0000
     11 C11         0.2195    0.8307    0.9188 C.3       1 <0>         0.0000
     12 C12        -1.0001    1.1700    0.0549 C.3       1 <0>         0.0000
     13 C13         2.3649   -0.5352    1.2935 C.3       1 <0>         0.0000
     14 C14         1.1534   -0.2750    0.3710 C.3       1 <0>         0.0000
     15 C15        -3.5656    2.1167   -0.1405 C.3       1 <0>         0.0000
     16 N1          1.6681    0.0834   -0.9557 N.3       1 <0>         0.0000
     17 N2          2.1084   -0.5131    4.9911 N.am      1 <0>         0.0000
     18 N3          2.3999   -0.1941    3.6876 N.am      1 <0>         0.0000
     19 O1          4.0191   -1.8000    5.2304 O.2       1 <0>         0.0000
     20 O2          1.2610   -2.0296    2.8442 O.2       1 <0>         0.0000
     21 O3          3.2186   -1.5159    0.7230 O.3       1 <0>         0.0000
     22 S1         -2.0492    2.4644    0.7791 S.3       1 <0>         0.0000
     23 Cl1         4.4719   -2.5412   10.5140 Cl        1 <0>         0.0000
     24 H1         -0.1227   -1.8284    9.1087 H         1 <0>         0.0000
     25 H2          0.4895   -1.3536    6.7634 H         1 <0>         0.0000
     26 H3          1.6231   -2.3540   10.7720 H         1 <0>         0.0000
     27 H4          4.6447   -1.9291    7.7296 H         1 <0>         0.0000
     28 H5         -4.6637    3.8047    0.6519 H         1 <0>         0.0000
     29 H6         -5.6983    2.4987    0.0696 H         1 <0>         0.0000
     30 H7         -4.8423    2.3359    1.6179 H         1 <0>         0.0000
     31 H8         -3.3306    3.7597   -1.5293 H         1 <0>         0.0000
     32 H9         -4.3446    2.4528   -2.1452 H         1 <0>         0.0000
     33 H10        -2.5797    2.2592   -2.0841 H         1 <0>         0.0000
     34 H11        -0.1531    0.5335    1.9082 H         1 <0>         0.0000
     35 H12         0.7975    1.7493    1.0822 H         1 <0>         0.0000
     36 H13        -1.6176    0.2727   -0.0585 H         1 <0>         0.0000
     37 H14        -0.7009    1.4813   -0.9501 H         1 <0>         0.0000
     38 H15         2.9484    0.3859    1.4229 H         1 <0>         0.0000
     39 H16         0.5915   -1.2082    0.2610 H         1 <0>         0.0000
     40 H17        -3.6811    1.0287   -0.1886 H         1 <0>         0.0000
     41 H18         0.8845    0.1717   -1.5934 H         1 <0>         0.0000
     42 H19         2.2416   -0.6802   -1.2969 H         1 <0>         0.0000
     43 H20         1.2682   -0.1582    5.4344 H         1 <0>         0.0000
     44 H21         2.9499    0.6302    3.4697 H         1 <0>         0.0000
     45 H22         2.7041   -2.3378    0.6655 H         1 <0>         0.0000
@<TRIPOS>BOND
     1    1    2 ar
     2    1    3 ar
     3    2    5 ar
     4    3    6 ar
     5    4    5 ar
     6    4    6 ar
     7    5    7 1
     8    6   23 1
     9    7   17 am
    10    7   19 2
    11    8   13 1
    12    8   18 am
    13    8   20 2
    14    9   15 1
    15   10   15 1
    16   11   12 1
    17   11   14 1
    18   12   22 1
    19   13   14 1
    20   13   21 1
    21   14   16 1
    22   15   22 1
    23   17   18 1
    24    1   24 1
    25    2   25 1
    26    3   26 1
    27    4   27 1
    28    9   28 1
    29    9   29 1
    30    9   30 1
    31   10   31 1
    32   10   32 1
    33   10   33 1
    34   11   34 1
    35   11   35 1
    36   12   36 1
    37   12   37 1
    38   13   38 1
    39   14   39 1
    40   15   40 1
    41   16   41 1
    42   16   42 1
    43   17   43 1
    44   18   44 1
    45   21   45 1
@<TRIPOS>MOLECULE
LIGAND
   45    45     0     0     0
SMALL
NO_CHARGES

@<TRIPOS>ATOM
      1 C1          0.7616   -0.9565    8.9701 C.ar      1 <0>         0.0000
      2 C2          1.1113   -0.5972    7.6686 C.ar      1 <0>         0.0000
      3 C3         -0.3809   -0.4156    9.5599 C.ar      1 <0>         0.0000
      4 C4         -0.8238    0.8441    7.5465 C.ar      1 <0>         0.0000
      5 C5          0.3186    0.3032    6.9567 C.ar      1 <0>         0.0000
      6 C6         -1.1736    0.4847    8.8481 C.ar      1 <0>         0.0000
      7 C7          0.6923    0.6859    5.5704 C.2       1 <0>         0.0000
      8 C8          1.9325   -1.0133    2.6768 C.2       1 <0>         0.0000
      9 C9         -4.2088   -0.4946    1.1295 C.3       1 <0>         0.0000
     10 C10        -3.2081   -2.7893    0.8595 C.3       1 <0>         0.0000
     11 C11        -0.0095    0.4324    1.1072 C.3       1 <0>         0.0000
     12 C12        -1.2475    0.7494    0.2611 C.3       1 <0>         0.0000
     13 C13         2.3649   -0.5352    1.2935 C.3       1 <0>         0.0000
     14 C14         1.1534   -0.2750    0.3710 C.3       1 <0>         0.0000
     15 C15        -2.9219   -1.2977    0.9836 C.3       1 <0>         0.0000
     16 N1          1.6190    0.5274   -0.7660 N.3       1 <0>         0.0000
     17 N2          1.4238   -0.2520    4.8674 N.am      1 <0>         0.0000
     18 N3          1.7877    0.0290    3.5734 N.am      1 <0>         0.0000
     19 O1          0.3313    1.7736    5.1279 O.2       1 <0>         0.0000
     20 O2          1.7602   -2.2018    2.9407 O.2       1 <0>         0.0000
     21 O3          3.2186   -1.5159    0.7230 O.3       1 <0>         0.0000
     22 S1         -2.0098   -0.7290   -0.4693 S.3       1 <0>         0.0000
     23 Cl1        -2.5835    1.1514    9.5763 Cl        1 <0>         0.0000
     24 H1          1.3787   -1.6577    9.5240 H         1 <0>         0.0000
     25 H2          2.0040   -1.0253    7.2198 H         1 <0>         0.0000
     26 H3         -0.6409   -0.7049   10.5749 H         1 <0>         0.0000
     27 H4         -1.4407    1.5458    6.9886 H         1 <0>         0.0000
     28 H5         -4.8575   -0.6541    0.2609 H         1 <0>         0.0000
     29 H6         -4.7721   -0.8019    2.0176 H         1 <0>         0.0000
     30 H7         -4.0134    0.5815    1.2009 H         1 <0>         0.0000
     31 H8         -3.8414   -2.9842   -0.0132 H         1 <0>         0.0000
     32 H9         -3.7402   -3.1679    1.7393 H         1 <0>         0.0000
     33 H10        -2.2888   -3.3731    0.7357 H         1 <0>         0.0000
     34 H11        -0.3395   -0.1920    1.9483 H         1 <0>         0.0000
     35 H12         0.3553    1.3657    1.5547 H         1 <0>         0.0000
     36 H13        -0.9567    1.4096   -0.5629 H         1 <0>         0.0000
     37 H14        -2.0028    1.2819    0.8462 H         1 <0>         0.0000
     38 H15         2.9484    0.3859    1.4229 H         1 <0>         0.0000
     39 H16         0.8058   -1.2336   -0.0276 H         1 <0>         0.0000
     40 H17        -2.2886   -1.1246    1.8602 H         1 <0>         0.0000
     41 H18         0.8536    0.6316   -1.4231 H         1 <0>         0.0000
     42 H19         2.3513    0.0146   -1.2450 H         1 <0>         0.0000
     43 H20         1.6871   -1.1312    5.2989 H         1 <0>         0.0000
     44 H21         1.9478    0.9869    3.2798 H         1 <0>         0.0000
     45 H22         2.7041   -2.3378    0.6655 H         1 <0>         0.0000
@<TRIPOS>BOND
     1    1    2 ar
     2    1    3 ar
     3    2    5 ar
     4    3    6 ar
     5    4    5 ar
     6    4    6 ar
     7    5    7 1
     8    6   23 1
     9    7   17 am
    10    7   19 2
    11    8   13 1
    12    8   18 am
    13    8   20 2
    14    9   15 1
    15   10   15 1
    16   11   12 1
    17   11   14 1
    18   12   22 1
    19   13   14 1
    20   13   21 1
    21   14   16 1
    22   15   22 1
    23   17   18 1
    24    1   24 1
    25    2   25 1
    26    3   26 1
    27    4   27 1
    28    9   28 1
    29    9   29 1
    30    9   30 1
    31   10   31 1
    32   10   32 1
    33   10   33 1
    34   11   34 1
    35   11   35 1
    36   12   36 1
    37   12   37 1
    38   13   38 1
    39   14   39 1
    40   15   40 1
    41   16   41 1
    42   16   42 1
    43   17   43 1
    44   18   44 1
    45   21   45 1
@<TRIPOS>MOLECULE
LIGAND
   45    45     0     0     0
SMALL
NO_CHARGES

@<TRIPOS>ATOM
      1 C1          0.8357    0.1354    9.3996 C.ar      1 <0>         0.0000
      2 C2          1.3551    0.4336    8.1400 C.ar      1 <0>         0.0000
      3 C3         -0.0643   -0.9196    9.5510 C.ar      1 <0>         0.0000
      4 C4          0.0746   -1.3780    7.1830 C.ar      1 <0>         0.0000
      5 C5          0.9746   -0.3231    7.0316 C.ar      1 <0>         0.0000
      6 C6         -0.4448   -1.6762    8.4427 C.ar      1 <0>         0.0000
      7 C7          1.5280   -0.0043    5.6900 C.2       1 <0>         0.0000
      8 C8          1.9325   -1.0133    2.6768 C.2       1 <0>         0.0000
      9 C9         -0.7661    4.0842   -1.5067 C.3       1 <0>         0.0000
     10 C10         1.2631    3.9522   -2.9918 C.3       1 <0>         0.0000
     11 C11         1.5761    0.1765   -1.0474 C.3       1 <0>         0.0000
     12 C12         2.3784    1.4800   -1.1273 C.3       1 <0>         0.0000
     13 C13         2.3649   -0.5352    1.2935 C.3       1 <0>         0.0000
     14 C14         1.1534   -0.2750    0.3710 C.3       1 <0>         0.0000
     15 C15         0.4393    3.2484   -1.9202 C.3       1 <0>         0.0000
     16 N1          0.3597   -1.5080    0.3138 N.3       1 <0>         0.0000
     17 N2          0.7320   -0.3536    4.6161 N.am      1 <0>         0.0000
     18 N3          1.1743   -0.0714    3.3469 N.am      1 <0>         0.0000
     19 O1          2.6215    0.5492    5.6056 O.2       1 <0>         0.0000
     20 O2          2.2555   -2.1109    3.1269 O.2       1 <0>         0.0000
     21 O3          3.2186   -1.5159    0.7230 O.3       1 <0>         0.0000
     22 S1          1.4741    2.9151   -0.4766 S.3       1 <0>         0.0000
     23 Cl1        -1.5550   -2.9781    8.6304 Cl        1 <0>         0.0000
     24 H1          1.1323    0.7244   10.2624 H         1 <0>         0.0000
     25 H2          2.0556    1.2581    8.0346 H         1 <0>         0.0000
     26 H3         -0.4608   -1.1402   10.5387 H         1 <0>         0.0000
     27 H4         -0.2200   -1.9669    6.3167 H         1 <0>         0.0000
     28 H5         -0.4402    5.0542   -1.1149 H         1 <0>         0.0000
     29 H6         -1.4254    4.2821   -2.3592 H         1 <0>         0.0000
     30 H7         -1.3544    3.5937   -0.7229 H         1 <0>         0.0000
     31 H8          1.6202    4.9203   -2.6228 H         1 <0>         0.0000
     32 H9          0.6667    4.1459   -3.8903 H         1 <0>         0.0000
     33 H10         2.1426    3.3661   -3.2821 H         1 <0>         0.0000
     34 H11         2.1843   -0.6108   -1.5125 H         1 <0>         0.0000
     35 H12         0.6847    0.2765   -1.6798 H         1 <0>         0.0000
     36 H13         2.6151    1.6893   -2.1758 H         1 <0>         0.0000
     37 H14         3.3304    1.3937   -0.5957 H         1 <0>         0.0000
     38 H15         2.9484    0.3859    1.4229 H         1 <0>         0.0000
     39 H16         0.5249    0.4957    0.8291 H         1 <0>         0.0000
     40 H17         0.0926    2.2847   -2.3082 H         1 <0>         0.0000
     41 H18        -0.4842   -1.3249   -0.2178 H         1 <0>         0.0000
     42 H19         0.0690   -1.7492    1.2550 H         1 <0>         0.0000
     43 H20        -0.1619   -0.8097    4.7623 H         1 <0>         0.0000
     44 H21         0.9480    0.8148    2.9078 H         1 <0>         0.0000
     45 H22         2.7041   -2.3378    0.6655 H         1 <0>         0.0000
@<TRIPOS>BOND
     1    1    2 ar
     2    1    3 ar
     3    2    5 ar
     4    3    6 ar
     5    4    5 ar
     6    4    6 ar
     7    5    7 1
     8    6   23 1
     9    7   17 am
    10    7   19 2
    11    8   13 1
    12    8   18 am
    13    8   20 2
    14    9   15 1
    15   10   15 1
    16   11   12 1
    17   11   14 1
    18   12   22 1
    19   13   14 1
    20   13   21 1
    21   14   16 1
    22   15   22 1
    23   17   18 1
    24    1   24 1
    25    2   25 1
    26    3   26 1
    27    4   27 1
    28    9   28 1
    29    9   29 1
    30    9   30 1
    31   10   31 1
    32   10   32 1
    33   10   33 1
    34   11   34 1
    35   11   35 1
    36   12   36 1
    37   12   37 1
    38   13   38 1
    39   14   39 1
    40   15   40 1
    41   16   41 1
    42   16   42 1
    43   17   43 1
    44   18   44 1
    45   21   45 1
@<TRIPOS>MOLECULE
LIGAND
   45    45     0     0     0
SMALL
NO_CHARGES

@<TRIPOS>ATOM
      1 C1         -2.6241   -1.6244    7.8186 C.ar      1 <0>         0.0000
      2 C2         -2.2458   -1.3508    6.5042 C.ar      1 <0>         0.0000
      3 C3         -1.6506   -1.8141    8.7994 C.ar      1 <0>         0.0000
      4 C4          0.0795   -1.4566    7.1515 C.ar      1 <0>         0.0000
      5 C5         -0.8940   -1.2668    6.1707 C.ar      1 <0>         0.0000
      6 C6         -0.2989   -1.7302    8.4659 C.ar      1 <0>         0.0000
      7 C7         -0.4919   -0.9759    4.7701 C.2       1 <0>         0.0000
      8 C8          1.9325   -1.0133    2.6768 C.2       1 <0>         0.0000
      9 C9          5.1418    3.1300   -1.9709 C.3       1 <0>         0.0000
     10 C10         3.7665    4.3432   -3.6963 C.3       1 <0>         0.0000
     11 C11         1.5761    0.1765   -1.0474 C.3       1 <0>         0.0000
     12 C12         2.3784    1.4800   -1.1273 C.3       1 <0>         0.0000
     13 C13         2.3649   -0.5352    1.2935 C.3       1 <0>         0.0000
     14 C14         1.1534   -0.2750    0.3710 C.3       1 <0>         0.0000
     15 C15         3.7349    3.4566   -2.4572 C.3       1 <0>         0.0000
     16 N1          0.3597   -1.5080    0.3138 N.3       1 <0>         0.0000
     17 N2          0.7320   -0.3536    4.6161 N.am      1 <0>         0.0000
     18 N3          1.1743   -0.0714    3.3469 N.am      1 <0>         0.0000
     19 O1         -1.2351   -1.3059    3.8493 O.2       1 <0>         0.0000
     20 O2          2.2555   -2.1109    3.1269 O.2       1 <0>         0.0000
     21 O3          3.2186   -1.5159    0.7230 O.3       1 <0>         0.0000
     22 S1          2.8465    1.9264   -2.8249 S.3       1 <0>         0.0000
     23 Cl1         0.9018   -1.9639    9.6768 Cl        1 <0>         0.0000
     24 H1         -3.6766   -1.6894    8.0781 H         1 <0>         0.0000
     25 H2         -3.0136   -1.2050    5.7487 H         1 <0>         0.0000
     26 H3         -1.9605   -2.0267    9.8194 H         1 <0>         0.0000
     27 H4          1.1333   -1.3900    6.8885 H         1 <0>         0.0000
     28 H5          5.7052    2.6127   -2.7555 H         1 <0>         0.0000
     29 H6          5.6972    4.0398   -1.7170 H         1 <0>         0.0000
     30 H7          5.1290    2.4774   -1.0905 H         1 <0>         0.0000
     31 H8          4.3088    3.8446   -4.5075 H         1 <0>         0.0000
     32 H9          4.2791    5.2906   -3.4959 H         1 <0>         0.0000
     33 H10         2.7588    4.5681   -4.0639 H         1 <0>         0.0000
     34 H11         2.1843   -0.6108   -1.5125 H         1 <0>         0.0000
     35 H12         0.6847    0.2765   -1.6798 H         1 <0>         0.0000
     36 H13         3.3029    1.3655   -0.5514 H         1 <0>         0.0000
     37 H14         1.8267    2.3139   -0.6838 H         1 <0>         0.0000
     38 H15         2.9484    0.3859    1.4229 H         1 <0>         0.0000
     39 H16         0.5249    0.4957    0.8291 H         1 <0>         0.0000
     40 H17         3.1895    3.9723   -1.6597 H         1 <0>         0.0000
     41 H18        -0.4842   -1.3249   -0.2178 H         1 <0>         0.0000
     42 H19         0.0690   -1.7492    1.2550 H         1 <0>         0.0000
     43 H20         1.2931   -0.1098    5.4249 H         1 <0>         0.0000
     44 H21         0.9480    0.8148    2.9078 H         1 <0>         0.0000
     45 H22         2.7041   -2.3378    0.6655 H         1 <0>         0.0000
@<TRIPOS>BOND
     1    1    2 ar
     2    1    3 ar
     3    2    5 ar
     4    3    6 ar
     5    4    5 ar
     6    4    6 ar
     7    5    7 1
     8    6   23 1
     9    7   17 am
    10    7   19 2
    11    8   13 1
    12    8   18 am
    13    8   20 2
    14    9   15 1
    15   10   15 1
    16   11   12 1
    17   11   14 1
    18   12   22 1
    19   13   14 1
    20   13   21 1
    21   14   16 1
    22   15   22 1
    23   17   18 1
    24    1   24 1
    25    2   25 1
    26    3   26 1
    27    4   27 1
    28    9   28 1
    29    9   29 1
    30    9   30 1
    31   10   31 1
    32   10   32 1
    33   10   33 1
    34   11   34 1
    35   11   35 1
    36   12   36 1
    37   12   37 1
    38   13   38 1
    39   14   39 1
    40   15   40 1
    41   16   41 1
    42   16   42 1
    43   17   43 1
    44   18   44 1
    45   21   45 1
@<TRIPOS>MOLECULE
LIGAND
   45    45     0     0     0
SMALL
NO_CHARGES

@<TRIPOS>ATOM
      1 C1         -0.7874   -0.7484    8.5279 C.ar      1 <0>         0.0000
      2 C2         -0.4100   -0.4763    7.2130 C.ar      1 <0>         0.0000
      3 C3         -1.6489   -1.8111    8.8006 C.ar      1 <0>         0.0000
      4 C4         -1.7555   -2.3295    6.4433 C.ar      1 <0>         0.0000
      5 C5         -0.8940   -1.2668    6.1707 C.ar      1 <0>         0.0000
      6 C6         -2.1330   -2.6016    7.7583 C.ar      1 <0>         0.0000
      7 C7         -0.4919   -0.9759    4.7701 C.2       1 <0>         0.0000
      8 C8          1.9325   -1.0133    2.6768 C.2       1 <0>         0.0000
      9 C9          5.1418    3.1300   -1.9709 C.3       1 <0>         0.0000
     10 C10         3.7665    4.3432   -3.6963 C.3       1 <0>         0.0000
     11 C11         1.5761    0.1765   -1.0474 C.3       1 <0>         0.0000
     12 C12         2.3784    1.4800   -1.1273 C.3       1 <0>         0.0000
     13 C13         2.3649   -0.5352    1.2935 C.3       1 <0>         0.0000
     14 C14         1.1534   -0.2750    0.3710 C.3       1 <0>         0.0000
     15 C15         3.7349    3.4566   -2.4572 C.3       1 <0>         0.0000
     16 N1          0.3597   -1.5080    0.3138 N.3       1 <0>         0.0000
     17 N2          0.7320   -0.3536    4.6161 N.am      1 <0>         0.0000
     18 N3          1.1743   -0.0714    3.3469 N.am      1 <0>         0.0000
     19 O1         -1.2351   -1.3059    3.8493 O.2       1 <0>         0.0000
     20 O2          2.2555   -2.1109    3.1269 O.2       1 <0>         0.0000
     21 O3          3.2186   -1.5159    0.7230 O.3       1 <0>         0.0000
     22 S1          2.8465    1.9264   -2.8249 S.3       1 <0>         0.0000
     23 Cl1        -3.1956   -3.9130    8.0955 Cl        1 <0>         0.0000
     24 H1         -0.4102   -0.1330    9.3393 H         1 <0>         0.0000
     25 H2          0.2618    0.3545    7.0131 H         1 <0>         0.0000
     26 H3         -1.9343   -2.0111    9.8301 H         1 <0>         0.0000
     27 H4         -2.1312   -2.9448    5.6282 H         1 <0>         0.0000
     28 H5          5.7052    2.6127   -2.7555 H         1 <0>         0.0000
     29 H6          5.6972    4.0398   -1.7170 H         1 <0>         0.0000
     30 H7          5.1290    2.4774   -1.0905 H         1 <0>         0.0000
     31 H8          4.3088    3.8446   -4.5075 H         1 <0>         0.0000
     32 H9          4.2791    5.2906   -3.4959 H         1 <0>         0.0000
     33 H10         2.7588    4.5681   -4.0639 H         1 <0>         0.0000
     34 H11         2.1843   -0.6108   -1.5125 H         1 <0>         0.0000
     35 H12         0.6847    0.2765   -1.6798 H         1 <0>         0.0000
     36 H13         3.3029    1.3655   -0.5514 H         1 <0>         0.0000
     37 H14         1.8267    2.3139   -0.6838 H         1 <0>         0.0000
     38 H15         2.9484    0.3859    1.4229 H         1 <0>         0.0000
     39 H16         0.5249    0.4957    0.8291 H         1 <0>         0.0000
     40 H17         3.1895    3.9723   -1.6597 H         1 <0>         0.0000
     41 H18        -0.4842   -1.3249   -0.2178 H         1 <0>         0.0000
     42 H19         0.0690   -1.7492    1.2550 H         1 <0>         0.0000
     43 H20         1.2931   -0.1098    5.4249 H         1 <0>         0.0000
     44 H21         0.9480    0.8148    2.9078 H         1 <0>         0.0000
     45 H22         2.7041   -2.3378    0.6655 H         1 <0>         0.0000
@<TRIPOS>BOND
     1    1    2 ar
     2    1    3 ar
     3    2    5 ar
     4    3    6 ar
     5    4    5 ar
     6    4    6 ar
     7    5    7 1
     8    6   23 1
     9    7   17 am
    10    7   19 2
    11    8   13 1
    12    8   18 am
    13    8   20 2
    14    9   15 1
    15   10   15 1
    16   11   12 1
    17   11   14 1
    18   12   22 1
    19   13   14 1
    20   13   21 1
    21   14   16 1
    22   15   22 1
    23   17   18 1
    24    1   24 1
    25    2   25 1
    26    3   26 1
    27    4   27 1
    28    9   28 1
    29    9   29 1
    30    9   30 1
    31   10   31 1
    32   10   32 1
    33   10   33 1
    34   11   34 1
    35   11   35 1
    36   12   36 1
    37   12   37 1
    38   13   38 1
    39   14   39 1
    40   15   40 1
    41   16   41 1
    42   16   42 1
    43   17   43 1
    44   18   44 1
    45   21   45 1
@<TRIPOS>MOLECULE
LIGAND
   45    45     0     0     0
SMALL
NO_CHARGES

@<TRIPOS>ATOM
      1 C1          1.1782   -5.1016    7.9278 C.ar      1 <0>         0.0000
      2 C2          1.7191   -4.6144    6.7380 C.ar      1 <0>         0.0000
      3 C3         -0.2050   -5.1246    8.1072 C.ar      1 <0>         0.0000
      4 C4         -0.5061   -4.1728    5.9071 C.ar      1 <0>         0.0000
      5 C5          0.8770   -4.1499    5.7277 C.ar      1 <0>         0.0000
      6 C6         -1.0471   -4.6601    7.0968 C.ar      1 <0>         0.0000
      7 C7          1.4542   -3.6304    4.4609 C.2       1 <0>         0.0000
      8 C8          1.9325   -1.0133    2.6768 C.2       1 <0>         0.0000
      9 C9          0.9492    3.5395    4.1781 C.3       1 <0>         0.0000
     10 C10        -1.5671    3.4454    4.1811 C.3       1 <0>         0.0000
     11 C11         0.2195    0.8307    0.9188 C.3       1 <0>         0.0000
     12 C12         0.8590    2.2074    1.1305 C.3       1 <0>         0.0000
     13 C13         2.3649   -0.5352    1.2935 C.3       1 <0>         0.0000
     14 C14         1.1534   -0.2750    0.3710 C.3       1 <0>         0.0000
     15 C15        -0.2901    2.9668    3.5009 C.3       1 <0>         0.0000
     16 N1          1.6681    0.0834   -0.9557 N.3       1 <0>         0.0000
     17 N2          0.6851   -2.6985    3.7909 N.am      1 <0>         0.0000
     18 N3          1.1665   -2.1628    2.6216 N.am      1 <0>         0.0000
     19 O1          2.5559   -4.0300    4.0926 O.2       1 <0>         0.0000
     20 O2          2.2299   -0.4108    3.7066 O.2       1 <0>         0.0000
     21 O3          3.2186   -1.5159    0.7230 O.3       1 <0>         0.0000
     22 S1         -0.3102    3.4478    1.7590 S.3       1 <0>         0.0000
     23 Cl1        -2.7537   -4.6891    7.3187 Cl        1 <0>         0.0000
     24 H1          1.8340   -5.4635    8.7141 H         1 <0>         0.0000
     25 H2          2.7985   -4.6015    6.6100 H         1 <0>         0.0000
     26 H3         -0.6121   -5.5071    9.0396 H         1 <0>         0.0000
     27 H4         -1.1607   -3.8103    5.1170 H         1 <0>         0.0000
     28 H5          0.9275    4.6347    4.1481 H         1 <0>         0.0000
     29 H6          1.0005    3.2436    5.2319 H         1 <0>         0.0000
     30 H7          1.8721    3.2151    3.6839 H         1 <0>         0.0000
     31 H8         -1.6274    4.5391    4.1512 H         1 <0>         0.0000
     32 H9         -1.5938    3.1464    5.2349 H         1 <0>         0.0000
     33 H10        -2.4642    3.0528    3.6891 H         1 <0>         0.0000
     34 H11        -0.6259    0.9652    0.2307 H         1 <0>         0.0000
     35 H12        -0.2197    0.5004    1.8688 H         1 <0>         0.0000
     36 H13         1.2423    2.5738    0.1722 H         1 <0>         0.0000
     37 H14         1.7108    2.1489    1.8142 H         1 <0>         0.0000
     38 H15         2.9484    0.3859    1.4229 H         1 <0>         0.0000
     39 H16         0.5915   -1.2082    0.2610 H         1 <0>         0.0000
     40 H17        -0.2491    1.8731    3.5416 H         1 <0>         0.0000
     41 H18         0.8845    0.1717   -1.5934 H         1 <0>         0.0000
     42 H19         2.2416   -0.6802   -1.2969 H         1 <0>         0.0000
     43 H20        -0.2179   -2.4154    4.1557 H         1 <0>         0.0000
     44 H21         0.9630   -2.6038    1.7309 H         1 <0>         0.0000
     45 H22         2.7041   -2.3378    0.6655 H         1 <0>         0.0000
@<TRIPOS>BOND
     1    1    2 ar
     2    1    3 ar
     3    2    5 ar
     4    3    6 ar
     5    4    5 ar
     6    4    6 ar
     7    5    7 1
     8    6   23 1
     9    7   17 am
    10    7   19 2
    11    8   13 1
    12    8   18 am
    13    8   20 2
    14    9   15 1
    15   10   15 1
    16   11   12 1
    17   11   14 1
    18   12   22 1
    19   13   14 1
    20   13   21 1
    21   14   16 1
    22   15   22 1
    23   17   18 1
    24    1   24 1
    25    2   25 1
    26    3   26 1
    27    4   27 1
    28    9   28 1
    29    9   29 1
    30    9   30 1
    31   10   31 1
    32   10   32 1
    33   10   33 1
    34   11   34 1
    35   11   35 1
    36   12   36 1
    37   12   37 1
    38   13   38 1
    39   14   39 1
    40   15   40 1
    41   16   41 1
    42   16   42 1
    43   17   43 1
    44   18   44 1
    45   21   45 1
@<TRIPOS>MOLECULE
LIGAND
   45    45     0     0     0
SMALL
NO_CHARGES

@<TRIPOS>ATOM
      1 C1          3.2234   -1.0640    9.6374 C.ar      1 <0>         0.0000
      2 C2          3.5913   -0.7258    8.3352 C.ar      1 <0>         0.0000
      3 C3          1.8747   -1.1889    9.9710 C.ar      1 <0>         0.0000
      4 C4          1.2619   -0.6372    7.7001 C.ar      1 <0>         0.0000
      5 C5          2.6105   -0.5124    7.3666 C.ar      1 <0>         0.0000
      6 C6          0.8940   -0.9755    9.0024 C.ar      1 <0>         0.0000
      7 C7          3.0033   -0.1514    5.9797 C.2       1 <0>         0.0000
      8 C8          1.9325   -1.0133    2.6768 C.2       1 <0>         0.0000
      9 C9          0.2369    5.9907    2.5840 C.3       1 <0>         0.0000
     10 C10         1.4273    4.1074    3.7571 C.3       1 <0>         0.0000
     11 C11         0.2195    0.8307    0.9188 C.3       1 <0>         0.0000
     12 C12         0.8590    2.2074    1.1305 C.3       1 <0>         0.0000
     13 C13         2.3649   -0.5352    1.2935 C.3       1 <0>         0.0000
     14 C14         1.1534   -0.2750    0.3710 C.3       1 <0>         0.0000
     15 C15         0.8895    4.6225    2.4275 C.3       1 <0>         0.0000
     16 N1          1.6681    0.0834   -0.9557 N.3       1 <0>         0.0000
     17 N2          2.1084   -0.5131    4.9911 N.am      1 <0>         0.0000
     18 N3          2.3999   -0.1941    3.6876 N.am      1 <0>         0.0000
     19 O1          4.0607    0.4441    5.7889 O.2       1 <0>         0.0000
     20 O2          1.2610   -2.0296    2.8442 O.2       1 <0>         0.0000
     21 O3          3.2186   -1.5159    0.7230 O.3       1 <0>         0.0000
     22 S1         -0.3102    3.4478    1.7590 S.3       1 <0>         0.0000
     23 Cl1        -0.7699   -1.1303    9.4146 Cl        1 <0>         0.0000
     24 H1          3.9871   -1.2304   10.3914 H         1 <0>         0.0000
     25 H2          4.6454   -0.6312    8.0874 H         1 <0>         0.0000
     26 H3          1.6032   -1.4531   10.9898 H         1 <0>         0.0000
     27 H4          0.4990   -0.4707    6.9423 H         1 <0>         0.0000
     28 H5         -0.5922    5.9375    3.2984 H         1 <0>         0.0000
     29 H6          0.9490    6.7308    2.9659 H         1 <0>         0.0000
     30 H7         -0.1692    6.3609    1.6357 H         1 <0>         0.0000
     31 H8          0.6165    4.0253    4.4896 H         1 <0>         0.0000
     32 H9          2.1764    4.7890    4.1753 H         1 <0>         0.0000
     33 H10         1.8823    3.1153    3.6574 H         1 <0>         0.0000
     34 H11        -0.6259    0.9652    0.2307 H         1 <0>         0.0000
     35 H12        -0.2197    0.5004    1.8688 H         1 <0>         0.0000
     36 H13         1.2423    2.5738    0.1722 H         1 <0>         0.0000
     37 H14         1.7108    2.1489    1.8142 H         1 <0>         0.0000
     38 H15         2.9484    0.3859    1.4229 H         1 <0>         0.0000
     39 H16         0.5915   -1.2082    0.2610 H         1 <0>         0.0000
     40 H17         1.7141    4.6972    1.7106 H         1 <0>         0.0000
     41 H18         0.8845    0.1717   -1.5934 H         1 <0>         0.0000
     42 H19         2.2416   -0.6802   -1.2969 H         1 <0>         0.0000
     43 H20         1.2525   -1.0048    5.2237 H         1 <0>         0.0000
     44 H21         2.9499    0.6302    3.4697 H         1 <0>         0.0000
     45 H22         2.7041   -2.3378    0.6655 H         1 <0>         0.0000
@<TRIPOS>BOND
     1    1    2 ar
     2    1    3 ar
     3    2    5 ar
     4    3    6 ar
     5    4    5 ar
     6    4    6 ar
     7    5    7 1
     8    6   23 1
     9    7   17 am
    10    7   19 2
    11    8   13 1
    12    8   18 am
    13    8   20 2
    14    9   15 1
    15   10   15 1
    16   11   12 1
    17   11   14 1
    18   12   22 1
    19   13   14 1
    20   13   21 1
    21   14   16 1
    22   15   22 1
    23   17   18 1
    24    1   24 1
    25    2   25 1
    26    3   26 1
    27    4   27 1
    28    9   28 1
    29    9   29 1
    30    9   30 1
    31   10   31 1
    32   10   32 1
    33   10   33 1
    34   11   34 1
    35   11   35 1
    36   12   36 1
    37   12   37 1
    38   13   38 1
    39   14   39 1
    40   15   40 1
    41   16   41 1
    42   16   42 1
    43   17   43 1
    44   18   44 1
    45   21   45 1
@<TRIPOS>MOLECULE
LIGAND
   45    45     0     0     0
SMALL
NO_CHARGES

@<TRIPOS>ATOM
      1 C1          2.3780   -0.2776    9.6931 C.ar      1 <0>         0.0000
      2 C2          2.6800    0.1631    8.4046 C.ar      1 <0>         0.0000
      3 C3          2.1604   -1.6343    9.9331 C.ar      1 <0>         0.0000
      4 C4          2.5467   -2.1098    7.5961 C.ar      1 <0>         0.0000
      5 C5          2.7643   -0.7530    7.3561 C.ar      1 <0>         0.0000
      6 C6          2.2447   -2.5504    8.8846 C.ar      1 <0>         0.0000
      7 C7          3.0854   -0.2826    5.9837 C.2       1 <0>         0.0000
      8 C8          1.9325   -1.0133    2.6768 C.2       1 <0>         0.0000
      9 C9          0.2369    5.9907    2.5840 C.3       1 <0>         0.0000
     10 C10         1.4273    4.1074    3.7571 C.3       1 <0>         0.0000
     11 C11         0.2195    0.8307    0.9188 C.3       1 <0>         0.0000
     12 C12         0.8590    2.2074    1.1305 C.3       1 <0>         0.0000
     13 C13         2.3649   -0.5352    1.2935 C.3       1 <0>         0.0000
     14 C14         1.1534   -0.2750    0.3710 C.3       1 <0>         0.0000
     15 C15         0.8895    4.6225    2.4275 C.3       1 <0>         0.0000
     16 N1          1.6681    0.0834   -0.9557 N.3       1 <0>         0.0000
     17 N2          2.6023   -1.0670    4.9540 N.am      1 <0>         0.0000
     18 N3          2.8469   -0.6810    3.6590 N.am      1 <0>         0.0000
     19 O1          3.7293    0.7533    5.8374 O.2       1 <0>         0.0000
     20 O2          0.8915   -1.6405    2.8632 O.2       1 <0>         0.0000
     21 O3          3.2186   -1.5159    0.7230 O.3       1 <0>         0.0000
     22 S1         -0.3102    3.4478    1.7590 S.3       1 <0>         0.0000
     23 Cl1         1.9766   -4.2245    9.1816 Cl        1 <0>         0.0000
     24 H1          2.3127    0.4358   10.5093 H         1 <0>         0.0000
     25 H2          2.8474    1.2228    8.2300 H         1 <0>         0.0000
     26 H3          1.9260   -1.9630   10.9423 H         1 <0>         0.0000
     27 H4          2.6137   -2.8222    6.7763 H         1 <0>         0.0000
     28 H5         -0.5922    5.9375    3.2984 H         1 <0>         0.0000
     29 H6          0.9490    6.7308    2.9659 H         1 <0>         0.0000
     30 H7         -0.1692    6.3609    1.6357 H         1 <0>         0.0000
     31 H8          0.6165    4.0253    4.4896 H         1 <0>         0.0000
     32 H9          2.1764    4.7890    4.1753 H         1 <0>         0.0000
     33 H10         1.8823    3.1153    3.6574 H         1 <0>         0.0000
     34 H11        -0.6259    0.9652    0.2307 H         1 <0>         0.0000
     35 H12        -0.2197    0.5004    1.8688 H         1 <0>         0.0000
     36 H13         1.2423    2.5738    0.1722 H         1 <0>         0.0000
     37 H14         1.7108    2.1489    1.8142 H         1 <0>         0.0000
     38 H15         2.9484    0.3859    1.4229 H         1 <0>         0.0000
     39 H16         0.5915   -1.2082    0.2610 H         1 <0>         0.0000
     40 H17         1.7141    4.6972    1.7106 H         1 <0>         0.0000
     41 H18         0.8845    0.1717   -1.5934 H         1 <0>         0.0000
     42 H19         2.2416   -0.6802   -1.2969 H         1 <0>         0.0000
     43 H20         2.0769   -1.9119    5.1509 H         1 <0>         0.0000
     44 H21         3.6858   -0.1599    3.4266 H         1 <0>         0.0000
     45 H22         2.7041   -2.3378    0.6655 H         1 <0>         0.0000
@<TRIPOS>BOND
     1    1    2 ar
     2    1    3 ar
     3    2    5 ar
     4    3    6 ar
     5    4    5 ar
     6    4    6 ar
     7    5    7 1
     8    6   23 1
     9    7   17 am
    10    7   19 2
    11    8   13 1
    12    8   18 am
    13    8   20 2
    14    9   15 1
    15   10   15 1
    16   11   12 1
    17   11   14 1
    18   12   22 1
    19   13   14 1
    20   13   21 1
    21   14   16 1
    22   15   22 1
    23   17   18 1
    24    1   24 1
    25    2   25 1
    26    3   26 1
    27    4   27 1
    28    9   28 1
    29    9   29 1
    30    9   30 1
    31   10   31 1
    32   10   32 1
    33   10   33 1
    34   11   34 1
    35   11   35 1
    36   12   36 1
    37   12   37 1
    38   13   38 1
    39   14   39 1
    40   15   40 1
    41   16   41 1
    42   16   42 1
    43   17   43 1
    44   18   44 1
    45   21   45 1
@<TRIPOS>MOLECULE
LIGAND
   45    45     0     0     0
SMALL
NO_CHARGES

@<TRIPOS>ATOM
      1 C1          2.3780   -0.2776    9.6931 C.ar      1 <0>         0.0000
      2 C2          2.6800    0.1631    8.4046 C.ar      1 <0>         0.0000
      3 C3          2.1604   -1.6343    9.9331 C.ar      1 <0>         0.0000
      4 C4          2.5467   -2.1098    7.5961 C.ar      1 <0>         0.0000
      5 C5          2.7643   -0.7530    7.3561 C.ar      1 <0>         0.0000
      6 C6          2.2447   -2.5504    8.8846 C.ar      1 <0>         0.0000
      7 C7          3.0854   -0.2826    5.9837 C.2       1 <0>         0.0000
      8 C8          1.9325   -1.0133    2.6768 C.2       1 <0>         0.0000
      9 C9         -4.7601    2.7149    0.5929 C.3       1 <0>         0.0000
     10 C10        -3.4472    2.6704   -1.5553 C.3       1 <0>         0.0000
     11 C11         0.2195    0.8307    0.9188 C.3       1 <0>         0.0000
     12 C12        -1.0001    1.1700    0.0549 C.3       1 <0>         0.0000
     13 C13         2.3649   -0.5352    1.2935 C.3       1 <0>         0.0000
     14 C14         1.1534   -0.2750    0.3710 C.3       1 <0>         0.0000
     15 C15        -3.5656    2.1167   -0.1405 C.3       1 <0>         0.0000
     16 N1          1.6681    0.0834   -0.9557 N.3       1 <0>         0.0000
     17 N2          2.6023   -1.0670    4.9540 N.am      1 <0>         0.0000
     18 N3          2.8469   -0.6810    3.6590 N.am      1 <0>         0.0000
     19 O1          3.7293    0.7533    5.8374 O.2       1 <0>         0.0000
     20 O2          0.8915   -1.6405    2.8632 O.2       1 <0>         0.0000
     21 O3          3.2186   -1.5159    0.7230 O.3       1 <0>         0.0000
     22 S1         -2.0492    2.4644    0.7791 S.3       1 <0>         0.0000
     23 Cl1         1.9766   -4.2245    9.1816 Cl        1 <0>         0.0000
     24 H1          2.3127    0.4358   10.5093 H         1 <0>         0.0000
     25 H2          2.8474    1.2228    8.2300 H         1 <0>         0.0000
     26 H3          1.9260   -1.9630   10.9423 H         1 <0>         0.0000
     27 H4          2.6137   -2.8222    6.7763 H         1 <0>         0.0000
     28 H5         -4.6637    3.8047    0.6519 H         1 <0>         0.0000
     29 H6         -5.6983    2.4987    0.0696 H         1 <0>         0.0000
     30 H7         -4.8423    2.3359    1.6179 H         1 <0>         0.0000
     31 H8         -3.3306    3.7597   -1.5293 H         1 <0>         0.0000
     32 H9         -4.3446    2.4528   -2.1452 H         1 <0>         0.0000
     33 H10        -2.5797    2.2592   -2.0841 H         1 <0>         0.0000
     34 H11        -0.1531    0.5335    1.9082 H         1 <0>         0.0000
     35 H12         0.7975    1.7493    1.0822 H         1 <0>         0.0000
     36 H13        -1.6176    0.2727   -0.0585 H         1 <0>         0.0000
     37 H14        -0.7009    1.4813   -0.9501 H         1 <0>         0.0000
     38 H15         2.9484    0.3859    1.4229 H         1 <0>         0.0000
     39 H16         0.5915   -1.2082    0.2610 H         1 <0>         0.0000
     40 H17        -3.6811    1.0287   -0.1886 H         1 <0>         0.0000
     41 H18         0.8845    0.1717   -1.5934 H         1 <0>         0.0000
     42 H19         2.2416   -0.6802   -1.2969 H         1 <0>         0.0000
     43 H20         2.0769   -1.9119    5.1509 H         1 <0>         0.0000
     44 H21         3.6858   -0.1599    3.4266 H         1 <0>         0.0000
     45 H22         2.7041   -2.3378    0.6655 H         1 <0>         0.0000
@<TRIPOS>BOND
     1    1    2 ar
     2    1    3 ar
     3    2    5 ar
     4    3    6 ar
     5    4    5 ar
     6    4    6 ar
     7    5    7 1
     8    6   23 1
     9    7   17 am
    10    7   19 2
    11    8   13 1
    12    8   18 am
    13    8   20 2
    14    9   15 1
    15   10   15 1
    16   11   12 1
    17   11   14 1
    18   12   22 1
    19   13   14 1
    20   13   21 1
    21   14   16 1
    22   15   22 1
    23   17   18 1
    24    1   24 1
    25    2   25 1
    26    3   26 1
    27    4   27 1
    28    9   28 1
    29    9   29 1
    30    9   30 1
    31   10   31 1
    32   10   32 1
    33   10   33 1
    34   11   34 1
    35   11   35 1
    36   12   36 1
    37   12   37 1
    38   13   38 1
    39   14   39 1
    40   15   40 1
    41   16   41 1
    42   16   42 1
    43   17   43 1
    44   18   44 1
    45   21   45 1
@<TRIPOS>MOLECULE
LIGAND
   45    45     0     0     0
SMALL
NO_CHARGES

@<TRIPOS>ATOM
      1 C1         -2.0859    0.3620    8.4478 C.ar      1 <0>         0.0000
      2 C2         -1.6873    0.7057    7.1561 C.ar      1 <0>         0.0000
      3 C3         -1.6782   -0.8505    9.0041 C.ar      1 <0>         0.0000
      4 C4         -0.4734   -1.3755    6.9768 C.ar      1 <0>         0.0000
      5 C5         -0.8811   -0.1631    6.4206 C.ar      1 <0>         0.0000
      6 C6         -0.8720   -1.7192    8.2686 C.ar      1 <0>         0.0000
      7 C7         -0.4576    0.2036    5.0443 C.2       1 <0>         0.0000
      8 C8          1.9325   -1.0133    2.6768 C.2       1 <0>         0.0000
      9 C9         -3.1756    2.3246   -2.4935 C.3       1 <0>         0.0000
     10 C10        -1.2120    2.4385   -4.0656 C.3       1 <0>         0.0000
     11 C11         1.5761    0.1765   -1.0474 C.3       1 <0>         0.0000
     12 C12         0.4360    0.4372   -2.0380 C.3       1 <0>         0.0000
     13 C13         2.3649   -0.5352    1.2935 C.3       1 <0>         0.0000
     14 C14         1.1534   -0.2750    0.3710 C.3       1 <0>         0.0000
     15 C15        -1.8423    1.7019   -2.8899 C.3       1 <0>         0.0000
     16 N1          0.3597   -1.5080    0.3138 N.3       1 <0>         0.0000
     17 N2          0.7320   -0.3536    4.6161 N.am      1 <0>         0.0000
     18 N3          1.1743   -0.0714    3.3469 N.am      1 <0>         0.0000
     19 O1         -1.1696    0.9461    4.3728 O.2       1 <0>         0.0000
     20 O2          2.2555   -2.1109    3.1269 O.2       1 <0>         0.0000
     21 O3          3.2186   -1.5159    0.7230 O.3       1 <0>         0.0000
     22 S1         -0.7139    1.7277   -1.4786 S.3       1 <0>         0.0000
     23 Cl1        -0.3688   -3.2149    8.9559 Cl        1 <0>         0.0000
     24 H1         -2.7133    1.0387    9.0204 H         1 <0>         0.0000
     25 H2         -2.0115    1.6532    6.7333 H         1 <0>         0.0000
     26 H3         -1.9966   -1.1048   10.0118 H         1 <0>         0.0000
     27 H4          0.1559   -2.0511    6.4010 H         1 <0>         0.0000
     28 H5         -3.0368    3.3747   -2.2131 H         1 <0>         0.0000
     29 H6         -3.8895    2.3010   -3.3245 H         1 <0>         0.0000
     30 H7         -3.6275    1.8123   -1.6365 H         1 <0>         0.0000
     31 H8         -1.0430    3.4904   -3.8095 H         1 <0>         0.0000
     32 H9         -1.8649    2.4183   -4.9453 H         1 <0>         0.0000
     33 H10        -0.2436    2.0085   -4.3458 H         1 <0>         0.0000
     34 H11         2.1631    1.1018   -0.9736 H         1 <0>         0.0000
     35 H12         2.2520   -0.5707   -1.4824 H         1 <0>         0.0000
     36 H13        -0.1421   -0.4839   -2.1668 H         1 <0>         0.0000
     37 H14         0.8216    0.7132   -3.0237 H         1 <0>         0.0000
     38 H15         2.9484    0.3859    1.4229 H         1 <0>         0.0000
     39 H16         0.5249    0.4957    0.8291 H         1 <0>         0.0000
     40 H17        -2.0027    0.6542   -3.1661 H         1 <0>         0.0000
     41 H18        -0.4842   -1.3249   -0.2178 H         1 <0>         0.0000
     42 H19         0.0690   -1.7492    1.2550 H         1 <0>         0.0000
     43 H20         1.2684   -0.9594    5.2274 H         1 <0>         0.0000
     44 H21         0.9480    0.8148    2.9078 H         1 <0>         0.0000
     45 H22         2.7041   -2.3378    0.6655 H         1 <0>         0.0000
@<TRIPOS>BOND
     1    1    2 ar
     2    1    3 ar
     3    2    5 ar
     4    3    6 ar
     5    4    5 ar
     6    4    6 ar
     7    5    7 1
     8    6   23 1
     9    7   17 am
    10    7   19 2
    11    8   13 1
    12    8   18 am
    13    8   20 2
    14    9   15 1
    15   10   15 1
    16   11   12 1
    17   11   14 1
    18   12   22 1
    19   13   14 1
    20   13   21 1
    21   14   16 1
    22   15   22 1
    23   17   18 1
    24    1   24 1
    25    2   25 1
    26    3   26 1
    27    4   27 1
    28    9   28 1
    29    9   29 1
    30    9   30 1
    31   10   31 1
    32   10   32 1
    33   10   33 1
    34   11   34 1
    35   11   35 1
    36   12   36 1
    37   12   37 1
    38   13   38 1
    39   14   39 1
    40   15   40 1
    41   16   41 1
    42   16   42 1
    43   17   43 1
    44   18   44 1
    45   21   45 1
@<TRIPOS>MOLECULE
LIGAND
   45    45     0     0     0
SMALL
NO_CHARGES

@<TRIPOS>ATOM
      1 C1          1.4828   -0.9664    9.1345 C.ar      1 <0>         0.0000
      2 C2          1.8325   -0.6995    7.8109 C.ar      1 <0>         0.0000
      3 C3          1.9106   -2.1455    9.7447 C.ar      1 <0>         0.0000
      4 C4          3.0378   -2.7908    7.7076 C.ar      1 <0>         0.0000
      5 C5          2.6100   -1.6117    7.0974 C.ar      1 <0>         0.0000
      6 C6          2.6881   -3.0577    9.0313 C.ar      1 <0>         0.0000
      7 C7          2.9815   -1.3268    5.6872 C.2       1 <0>         0.0000
      8 C8          1.9325   -1.0133    2.6768 C.2       1 <0>         0.0000
      9 C9          0.2369    5.9907    2.5840 C.3       1 <0>         0.0000
     10 C10         1.4273    4.1074    3.7571 C.3       1 <0>         0.0000
     11 C11         0.2195    0.8307    0.9188 C.3       1 <0>         0.0000
     12 C12         0.8590    2.2074    1.1305 C.3       1 <0>         0.0000
     13 C13         2.3649   -0.5352    1.2935 C.3       1 <0>         0.0000
     14 C14         1.1534   -0.2750    0.3710 C.3       1 <0>         0.0000
     15 C15         0.8895    4.6225    2.4275 C.3       1 <0>         0.0000
     16 N1          1.6681    0.0834   -0.9557 N.3       1 <0>         0.0000
     17 N2          2.1084   -0.5131    4.9911 N.am      1 <0>         0.0000
     18 N3          2.3999   -0.1941    3.6876 N.am      1 <0>         0.0000
     19 O1          4.0191   -1.8000    5.2304 O.2       1 <0>         0.0000
     20 O2          1.2610   -2.0296    2.8442 O.2       1 <0>         0.0000
     21 O3          3.2186   -1.5159    0.7230 O.3       1 <0>         0.0000
     22 S1         -0.3102    3.4478    1.7590 S.3       1 <0>         0.0000
     23 Cl1         3.2160   -4.5123    9.7850 Cl        1 <0>         0.0000
     24 H1          0.8778   -0.2559    9.6899 H         1 <0>         0.0000
     25 H2          1.4931    0.2227    7.3462 H         1 <0>         0.0000
     26 H3          1.6303   -2.3400   10.7768 H         1 <0>         0.0000
     27 H4          3.6446   -3.5004    7.1487 H         1 <0>         0.0000
     28 H5         -0.5922    5.9375    3.2984 H         1 <0>         0.0000
     29 H6          0.9490    6.7308    2.9659 H         1 <0>         0.0000
     30 H7         -0.1692    6.3609    1.6357 H         1 <0>         0.0000
     31 H8          0.6165    4.0253    4.4896 H         1 <0>         0.0000
     32 H9          2.1764    4.7890    4.1753 H         1 <0>         0.0000
     33 H10         1.8823    3.1153    3.6574 H         1 <0>         0.0000
     34 H11        -0.6259    0.9652    0.2307 H         1 <0>         0.0000
     35 H12        -0.2197    0.5004    1.8688 H         1 <0>         0.0000
     36 H13         1.2423    2.5738    0.1722 H         1 <0>         0.0000
     37 H14         1.7108    2.1489    1.8142 H         1 <0>         0.0000
     38 H15         2.9484    0.3859    1.4229 H         1 <0>         0.0000
     39 H16         0.5915   -1.2082    0.2610 H         1 <0>         0.0000
     40 H17         1.7141    4.6972    1.7106 H         1 <0>         0.0000
     41 H18         0.8845    0.1717   -1.5934 H         1 <0>         0.0000
     42 H19         2.2416   -0.6802   -1.2969 H         1 <0>         0.0000
     43 H20         1.2682   -0.1582    5.4344 H         1 <0>         0.0000
     44 H21         2.9499    0.6302    3.4697 H         1 <0>         0.0000
     45 H22         2.7041   -2.3378    0.6655 H         1 <0>         0.0000
@<TRIPOS>BOND
     1    1    2 ar
     2    1    3 ar
     3    2    5 ar
     4    3    6 ar
     5    4    5 ar
     6    4    6 ar
     7    5    7 1
     8    6   23 1
     9    7   17 am
    10    7   19 2
    11    8   13 1
    12    8   18 am
    13    8   20 2
    14    9   15 1
    15   10   15 1
    16   11   12 1
    17   11   14 1
    18   12   22 1
    19   13   14 1
    20   13   21 1
    21   14   16 1
    22   15   22 1
    23   17   18 1
    24    1   24 1
    25    2   25 1
    26    3   26 1
    27    4   27 1
    28    9   28 1
    29    9   29 1
    30    9   30 1
    31   10   31 1
    32   10   32 1
    33   10   33 1
    34   11   34 1
    35   11   35 1
    36   12   36 1
    37   12   37 1
    38   13   38 1
    39   14   39 1
    40   15   40 1
    41   16   41 1
    42   16   42 1
    43   17   43 1
    44   18   44 1
    45   21   45 1
@<TRIPOS>MOLECULE
LIGAND
   45    45     0     0     0
SMALL
NO_CHARGES

@<TRIPOS>ATOM
      1 C1          1.3177   -0.8505    9.3642 C.ar      1 <0>         0.0000
      2 C2          1.8364   -0.5518    8.1043 C.ar      1 <0>         0.0000
      3 C3         -0.0628   -0.9206    9.5514 C.ar      1 <0>         0.0000
      4 C4         -0.4059   -0.3930    7.2188 C.ar      1 <0>         0.0000
      5 C5          0.9746   -0.3231    7.0316 C.ar      1 <0>         0.0000
      6 C6         -0.9246   -0.6918    8.4788 C.ar      1 <0>         0.0000
      7 C7          1.5280   -0.0043    5.6900 C.2       1 <0>         0.0000
      8 C8          1.9325   -1.0133    2.6768 C.2       1 <0>         0.0000
      9 C9         -0.7661    4.0842   -1.5067 C.3       1 <0>         0.0000
     10 C10         1.2631    3.9522   -2.9918 C.3       1 <0>         0.0000
     11 C11         1.5761    0.1765   -1.0474 C.3       1 <0>         0.0000
     12 C12         2.3784    1.4800   -1.1273 C.3       1 <0>         0.0000
     13 C13         2.3649   -0.5352    1.2935 C.3       1 <0>         0.0000
     14 C14         1.1534   -0.2750    0.3710 C.3       1 <0>         0.0000
     15 C15         0.4393    3.2484   -1.9202 C.3       1 <0>         0.0000
     16 N1          0.3597   -1.5080    0.3138 N.3       1 <0>         0.0000
     17 N2          0.7320   -0.3536    4.6161 N.am      1 <0>         0.0000
     18 N3          1.1743   -0.0714    3.3469 N.am      1 <0>         0.0000
     19 O1          2.6215    0.5492    5.6056 O.2       1 <0>         0.0000
     20 O2          2.2555   -2.1109    3.1269 O.2       1 <0>         0.0000
     21 O3          3.2186   -1.5159    0.7230 O.3       1 <0>         0.0000
     22 S1          1.4741    2.9151   -0.4766 S.3       1 <0>         0.0000
     23 Cl1        -2.6279   -0.7789    8.7104 Cl        1 <0>         0.0000
     24 H1          1.9889   -1.0289   10.1992 H         1 <0>         0.0000
     25 H2          2.9139   -0.5000    7.9709 H         1 <0>         0.0000
     26 H3         -0.4524   -1.1543   10.5388 H         1 <0>         0.0000
     27 H4         -1.0758   -0.2147    6.3801 H         1 <0>         0.0000
     28 H5         -0.4402    5.0542   -1.1149 H         1 <0>         0.0000
     29 H6         -1.4254    4.2821   -2.3592 H         1 <0>         0.0000
     30 H7         -1.3544    3.5937   -0.7229 H         1 <0>         0.0000
     31 H8          1.6202    4.9203   -2.6228 H         1 <0>         0.0000
     32 H9          0.6667    4.1459   -3.8903 H         1 <0>         0.0000
     33 H10         2.1426    3.3661   -3.2821 H         1 <0>         0.0000
     34 H11         2.1843   -0.6108   -1.5125 H         1 <0>         0.0000
     35 H12         0.6847    0.2765   -1.6798 H         1 <0>         0.0000
     36 H13         2.6151    1.6893   -2.1758 H         1 <0>         0.0000
     37 H14         3.3304    1.3937   -0.5957 H         1 <0>         0.0000
     38 H15         2.9484    0.3859    1.4229 H         1 <0>         0.0000
     39 H16         0.5249    0.4957    0.8291 H         1 <0>         0.0000
     40 H17         0.0926    2.2847   -2.3082 H         1 <0>         0.0000
     41 H18        -0.4842   -1.3249   -0.2178 H         1 <0>         0.0000
     42 H19         0.0690   -1.7492    1.2550 H         1 <0>         0.0000
     43 H20        -0.1619   -0.8097    4.7623 H         1 <0>         0.0000
     44 H21         0.9480    0.8148    2.9078 H         1 <0>         0.0000
     45 H22         2.7041   -2.3378    0.6655 H         1 <0>         0.0000
@<TRIPOS>BOND
     1    1    2 ar
     2    1    3 ar
     3    2    5 ar
     4    3    6 ar
     5    4    5 ar
     6    4    6 ar
     7    5    7 1
     8    6   23 1
     9    7   17 am
    10    7   19 2
    11    8   13 1
    12    8   18 am
    13    8   20 2
    14    9   15 1
    15   10   15 1
    16   11   12 1
    17   11   14 1
    18   12   22 1
    19   13   14 1
    20   13   21 1
    21   14   16 1
    22   15   22 1
    23   17   18 1
    24    1   24 1
    25    2   25 1
    26    3   26 1
    27    4   27 1
    28    9   28 1
    29    9   29 1
    30    9   30 1
    31   10   31 1
    32   10   32 1
    33   10   33 1
    34   11   34 1
    35   11   35 1
    36   12   36 1
    37   12   37 1
    38   13   38 1
    39   14   39 1
    40   15   40 1
    41   16   41 1
    42   16   42 1
    43   17   43 1
    44   18   44 1
    45   21   45 1
@<TRIPOS>MOLECULE
LIGAND
   45    45     0     0     0
SMALL
NO_CHARGES

@<TRIPOS>ATOM
      1 C1         -2.8134   -3.6397    6.9542 C.ar      1 <0>         0.0000
      2 C2         -2.3780   -3.0405    5.7723 C.ar      1 <0>         0.0000
      3 C3         -1.8836   -4.1212    7.8758 C.ar      1 <0>         0.0000
      4 C4         -0.0829   -3.4042    6.4334 C.ar      1 <0>         0.0000
      5 C5         -1.0128   -2.9227    5.5119 C.ar      1 <0>         0.0000
      6 C6         -0.5183   -4.0035    7.6154 C.ar      1 <0>         0.0000
      7 C7         -0.5498   -2.2848    4.2523 C.2       1 <0>         0.0000
      8 C8          1.9325   -1.0133    2.6768 C.2       1 <0>         0.0000
      9 C9         -1.3566    4.2423   -1.1718 C.3       1 <0>         0.0000
     10 C10        -1.3823    5.0762    1.2040 C.3       1 <0>         0.0000
     11 C11         0.2195    0.8307    0.9188 C.3       1 <0>         0.0000
     12 C12        -1.0001    1.1700    0.0549 C.3       1 <0>         0.0000
     13 C13         2.3649   -0.5352    1.2935 C.3       1 <0>         0.0000
     14 C14         1.1534   -0.2750    0.3710 C.3       1 <0>         0.0000
     15 C15        -1.0699    3.9009    0.2855 C.3       1 <0>         0.0000
     16 N1          1.6681    0.0834   -0.9557 N.3       1 <0>         0.0000
     17 N2          0.6851   -2.6985    3.7909 N.am      1 <0>         0.0000
     18 N3          1.1665   -2.1628    2.6216 N.am      1 <0>         0.0000
     19 O1         -1.2703   -1.4609    3.6944 O.2       1 <0>         0.0000
     20 O2          2.2299   -0.4108    3.7066 O.2       1 <0>         0.0000
     21 O3          3.2186   -1.5159    0.7230 O.3       1 <0>         0.0000
     22 S1         -2.0492    2.4644    0.7791 S.3       1 <0>         0.0000
     23 Cl1         0.6285   -4.5974    8.7532 Cl        1 <0>         0.0000
     24 H1         -3.8765   -3.7310    7.1569 H         1 <0>         0.0000
     25 H2         -3.1122   -2.6692    5.0619 H         1 <0>         0.0000
     26 H3         -2.2377   -4.5858    8.7924 H         1 <0>         0.0000
     27 H4          0.9816   -3.3106    6.2279 H         1 <0>         0.0000
     28 H5         -2.4105    4.5137   -1.2989 H         1 <0>         0.0000
     29 H6         -0.7576    5.0967   -1.5064 H         1 <0>         0.0000
     30 H7         -1.1520    3.3963   -1.8378 H         1 <0>         0.0000
     31 H8         -2.4367    5.3604    1.1134 H         1 <0>         0.0000
     32 H9         -0.7841    5.9563    0.9431 H         1 <0>         0.0000
     33 H10        -1.1964    4.8333    2.2564 H         1 <0>         0.0000
     34 H11        -0.1531    0.5335    1.9082 H         1 <0>         0.0000
     35 H12         0.7975    1.7493    1.0822 H         1 <0>         0.0000
     36 H13        -1.6176    0.2727   -0.0585 H         1 <0>         0.0000
     37 H14        -0.7009    1.4813   -0.9501 H         1 <0>         0.0000
     38 H15         2.9484    0.3859    1.4229 H         1 <0>         0.0000
     39 H16         0.5915   -1.2082    0.2610 H         1 <0>         0.0000
     40 H17        -0.0132    3.6330    0.3910 H         1 <0>         0.0000
     41 H18         0.8845    0.1717   -1.5934 H         1 <0>         0.0000
     42 H19         2.2416   -0.6802   -1.2969 H         1 <0>         0.0000
     43 H20         1.2257   -3.3847    4.3060 H         1 <0>         0.0000
     44 H21         0.9630   -2.6038    1.7309 H         1 <0>         0.0000
     45 H22         2.7041   -2.3378    0.6655 H         1 <0>         0.0000
@<TRIPOS>BOND
     1    1    2 ar
     2    1    3 ar
     3    2    5 ar
     4    3    6 ar
     5    4    5 ar
     6    4    6 ar
     7    5    7 1
     8    6   23 1
     9    7   17 am
    10    7   19 2
    11    8   13 1
    12    8   18 am
    13    8   20 2
    14    9   15 1
    15   10   15 1
    16   11   12 1
    17   11   14 1
    18   12   22 1
    19   13   14 1
    20   13   21 1
    21   14   16 1
    22   15   22 1
    23   17   18 1
    24    1   24 1
    25    2   25 1
    26    3   26 1
    27    4   27 1
    28    9   28 1
    29    9   29 1
    30    9   30 1
    31   10   31 1
    32   10   32 1
    33   10   33 1
    34   11   34 1
    35   11   35 1
    36   12   36 1
    37   12   37 1
    38   13   38 1
    39   14   39 1
    40   15   40 1
    41   16   41 1
    42   16   42 1
    43   17   43 1
    44   18   44 1
    45   21   45 1
@<TRIPOS>MOLECULE
LIGAND
   45    45     0     0     0
SMALL
NO_CHARGES

@<TRIPOS>ATOM
      1 C1          0.3098   -0.7270    9.1684 C.ar      1 <0>         0.0000
      2 C2          0.5387   -0.2630    7.8731 C.ar      1 <0>         0.0000
      3 C3          1.1930   -1.6369    9.7496 C.ar      1 <0>         0.0000
      4 C4          2.5339   -1.6190    7.7400 C.ar      1 <0>         0.0000
      5 C5          1.6507   -0.7090    7.1588 C.ar      1 <0>         0.0000
      6 C6          2.3050   -2.0829    9.0354 C.ar      1 <0>         0.0000
      7 C7          1.8934   -0.2148    5.7787 C.2       1 <0>         0.0000
      8 C8          1.9325   -1.0133    2.6768 C.2       1 <0>         0.0000
      9 C9         -3.5456    2.3208    3.0565 C.3       1 <0>         0.0000
     10 C10        -4.0220    0.6377    1.2453 C.3       1 <0>         0.0000
     11 C11         0.2195    0.8307    0.9188 C.3       1 <0>         0.0000
     12 C12        -1.0001    1.1700    0.0549 C.3       1 <0>         0.0000
     13 C13         2.3649   -0.5352    1.2935 C.3       1 <0>         0.0000
     14 C14         1.1534   -0.2750    0.3710 C.3       1 <0>         0.0000
     15 C15        -2.9459    1.4397    1.9673 C.3       1 <0>         0.0000
     16 N1          1.6681    0.0834   -0.9557 N.3       1 <0>         0.0000
     17 N2          2.6023   -1.0670    4.9540 N.am      1 <0>         0.0000
     18 N3          2.8469   -0.6810    3.6590 N.am      1 <0>         0.0000
     19 O1          1.4534    0.8829    5.4461 O.2       1 <0>         0.0000
     20 O2          0.8915   -1.6405    2.8632 O.2       1 <0>         0.0000
     21 O3          3.2186   -1.5159    0.7230 O.3       1 <0>         0.0000
     22 S1         -2.0492    2.4644    0.7791 S.3       1 <0>         0.0000
     23 Cl1         3.3947   -3.2053    9.7533 Cl        1 <0>         0.0000
     24 H1         -0.5558   -0.3793    9.7245 H         1 <0>         0.0000
     25 H2         -0.1567    0.4458    7.4309 H         1 <0>         0.0000
     26 H3          1.0018   -1.9896   10.7598 H         1 <0>         0.0000
     27 H4          3.4009   -1.9648    7.1806 H         1 <0>         0.0000
     28 H5         -4.2705    3.0197    2.6246 H         1 <0>         0.0000
     29 H6         -4.0763    1.7229    3.8059 H         1 <0>         0.0000
     30 H7         -2.7806    2.9152    3.5690 H         1 <0>         0.0000
     31 H8         -4.7543    1.3108    0.7855 H         1 <0>         0.0000
     32 H9         -4.5673   -0.0125    1.9385 H         1 <0>         0.0000
     33 H10        -3.6015    0.0146    0.4477 H         1 <0>         0.0000
     34 H11        -0.1531    0.5335    1.9082 H         1 <0>         0.0000
     35 H12         0.7975    1.7493    1.0822 H         1 <0>         0.0000
     36 H13        -1.6176    0.2727   -0.0585 H         1 <0>         0.0000
     37 H14        -0.7009    1.4813   -0.9501 H         1 <0>         0.0000
     38 H15         2.9484    0.3859    1.4229 H         1 <0>         0.0000
     39 H16         0.5915   -1.2082    0.2610 H         1 <0>         0.0000
     40 H17        -2.2253    0.7496    2.4190 H         1 <0>         0.0000
     41 H18         0.8845    0.1717   -1.5934 H         1 <0>         0.0000
     42 H19         2.2416   -0.6802   -1.2969 H         1 <0>         0.0000
     43 H20         2.9356   -1.9607    5.2985 H         1 <0>         0.0000
     44 H21         3.6858   -0.1599    3.4266 H         1 <0>         0.0000
     45 H22         2.7041   -2.3378    0.6655 H         1 <0>         0.0000
@<TRIPOS>BOND
     1    1    2 ar
     2    1    3 ar
     3    2    5 ar
     4    3    6 ar
     5    4    5 ar
     6    4    6 ar
     7    5    7 1
     8    6   23 1
     9    7   17 am
    10    7   19 2
    11    8   13 1
    12    8   18 am
    13    8   20 2
    14    9   15 1
    15   10   15 1
    16   11   12 1
    17   11   14 1
    18   12   22 1
    19   13   14 1
    20   13   21 1
    21   14   16 1
    22   15   22 1
    23   17   18 1
    24    1   24 1
    25    2   25 1
    26    3   26 1
    27    4   27 1
    28    9   28 1
    29    9   29 1
    30    9   30 1
    31   10   31 1
    32   10   32 1
    33   10   33 1
    34   11   34 1
    35   11   35 1
    36   12   36 1
    37   12   37 1
    38   13   38 1
    39   14   39 1
    40   15   40 1
    41   16   41 1
    42   16   42 1
    43   17   43 1
    44   18   44 1
    45   21   45 1
@<TRIPOS>MOLECULE
LIGAND
   45    45     0     0     0
SMALL
NO_CHARGES

@<TRIPOS>ATOM
      1 C1         -0.5153   -4.0016    7.6155 C.ar      1 <0>         0.0000
      2 C2         -0.0816   -3.4032    6.4326 C.ar      1 <0>         0.0000
      3 C3         -1.8803   -4.1197    7.8777 C.ar      1 <0>         0.0000
      4 C4         -2.3777   -3.0408    5.7741 C.ar      1 <0>         0.0000
      5 C5         -1.0128   -2.9227    5.5119 C.ar      1 <0>         0.0000
      6 C6         -2.8114   -3.6393    6.9570 C.ar      1 <0>         0.0000
      7 C7         -0.5498   -2.2848    4.2523 C.2       1 <0>         0.0000
      8 C8          1.9325   -1.0133    2.6768 C.2       1 <0>         0.0000
      9 C9         -4.2967    1.3927   -0.3375 C.3       1 <0>         0.0000
     10 C10        -4.0071    3.8901   -0.4781 C.3       1 <0>         0.0000
     11 C11         0.2195    0.8307    0.9188 C.3       1 <0>         0.0000
     12 C12        -1.0001    1.1700    0.0549 C.3       1 <0>         0.0000
     13 C13         2.3649   -0.5352    1.2935 C.3       1 <0>         0.0000
     14 C14         1.1534   -0.2750    0.3710 C.3       1 <0>         0.0000
     15 C15        -3.3066    2.5373   -0.5169 C.3       1 <0>         0.0000
     16 N1          1.6681    0.0834   -0.9557 N.3       1 <0>         0.0000
     17 N2          0.6851   -2.6985    3.7909 N.am      1 <0>         0.0000
     18 N3          1.1665   -2.1628    2.6216 N.am      1 <0>         0.0000
     19 O1         -1.2703   -1.4609    3.6944 O.2       1 <0>         0.0000
     20 O2          2.2299   -0.4108    3.7066 O.2       1 <0>         0.0000
     21 O3          3.2186   -1.5159    0.7230 O.3       1 <0>         0.0000
     22 S1         -2.0492    2.4644    0.7791 S.3       1 <0>         0.0000
     23 Cl1        -4.4955   -3.7857    7.2810 Cl        1 <0>         0.0000
     24 H1          0.2098   -4.3759    8.3321 H         1 <0>         0.0000
     25 H2          0.9846   -3.3169    6.2396 H         1 <0>         0.0000
     26 H3         -2.2034   -4.5883    8.8037 H         1 <0>         0.0000
     27 H4         -3.1019   -2.6655    5.0538 H         1 <0>         0.0000
     28 H5         -4.8186    1.4878    0.6213 H         1 <0>         0.0000
     29 H6         -5.0586    1.3975   -1.1249 H         1 <0>         0.0000
     30 H7         -3.7990    0.4164   -0.3457 H         1 <0>         0.0000
     31 H8         -4.5245    4.0235    0.4785 H         1 <0>         0.0000
     32 H9         -4.7599    3.9723   -1.2700 H         1 <0>         0.0000
     33 H10        -3.2998    4.7201   -0.5881 H         1 <0>         0.0000
     34 H11        -0.1531    0.5335    1.9082 H         1 <0>         0.0000
     35 H12         0.7975    1.7493    1.0822 H         1 <0>         0.0000
     36 H13        -1.6176    0.2727   -0.0585 H         1 <0>         0.0000
     37 H14        -0.7009    1.4813   -0.9501 H         1 <0>         0.0000
     38 H15         2.9484    0.3859    1.4229 H         1 <0>         0.0000
     39 H16         0.5915   -1.2082    0.2610 H         1 <0>         0.0000
     40 H17        -2.7965    2.4239   -1.4795 H         1 <0>         0.0000
     41 H18         0.8845    0.1717   -1.5934 H         1 <0>         0.0000
     42 H19         2.2416   -0.6802   -1.2969 H         1 <0>         0.0000
     43 H20         1.2257   -3.3847    4.3060 H         1 <0>         0.0000
     44 H21         0.9630   -2.6038    1.7309 H         1 <0>         0.0000
     45 H22         2.7041   -2.3378    0.6655 H         1 <0>         0.0000
@<TRIPOS>BOND
     1    1    2 ar
     2    1    3 ar
     3    2    5 ar
     4    3    6 ar
     5    4    5 ar
     6    4    6 ar
     7    5    7 1
     8    6   23 1
     9    7   17 am
    10    7   19 2
    11    8   13 1
    12    8   18 am
    13    8   20 2
    14    9   15 1
    15   10   15 1
    16   11   12 1
    17   11   14 1
    18   12   22 1
    19   13   14 1
    20   13   21 1
    21   14   16 1
    22   15   22 1
    23   17   18 1
    24    1   24 1
    25    2   25 1
    26    3   26 1
    27    4   27 1
    28    9   28 1
    29    9   29 1
    30    9   30 1
    31   10   31 1
    32   10   32 1
    33   10   33 1
    34   11   34 1
    35   11   35 1
    36   12   36 1
    37   12   37 1
    38   13   38 1
    39   14   39 1
    40   15   40 1
    41   16   41 1
    42   16   42 1
    43   17   43 1
    44   18   44 1
    45   21   45 1
@<TRIPOS>MOLECULE
LIGAND
   45    45     0     0     0
SMALL
NO_CHARGES

@<TRIPOS>ATOM
      1 C1         -2.3305   -2.8430    7.5352 C.ar      1 <0>         0.0000
      2 C2         -1.8950   -2.2446    6.3529 C.ar      1 <0>         0.0000
      3 C3         -1.8838   -4.1195    7.8766 C.ar      1 <0>         0.0000
      4 C4         -0.5660   -4.1993    5.8532 C.ar      1 <0>         0.0000
      5 C5         -1.0128   -2.9227    5.5119 C.ar      1 <0>         0.0000
      6 C6         -1.0015   -4.7977    7.0355 C.ar      1 <0>         0.0000
      7 C7         -0.5498   -2.2848    4.2523 C.2       1 <0>         0.0000
      8 C8          1.9325   -1.0133    2.6768 C.2       1 <0>         0.0000
      9 C9         -1.3566    4.2423   -1.1718 C.3       1 <0>         0.0000
     10 C10        -1.3823    5.0762    1.2040 C.3       1 <0>         0.0000
     11 C11         0.2195    0.8307    0.9188 C.3       1 <0>         0.0000
     12 C12        -1.0001    1.1700    0.0549 C.3       1 <0>         0.0000
     13 C13         2.3649   -0.5352    1.2935 C.3       1 <0>         0.0000
     14 C14         1.1534   -0.2750    0.3710 C.3       1 <0>         0.0000
     15 C15        -1.0699    3.9009    0.2855 C.3       1 <0>         0.0000
     16 N1          1.6681    0.0834   -0.9557 N.3       1 <0>         0.0000
     17 N2          0.6851   -2.6985    3.7909 N.am      1 <0>         0.0000
     18 N3          1.1665   -2.1628    2.6216 N.am      1 <0>         0.0000
     19 O1         -1.2703   -1.4609    3.6944 O.2       1 <0>         0.0000
     20 O2          2.2299   -0.4108    3.7066 O.2       1 <0>         0.0000
     21 O3          3.2186   -1.5159    0.7230 O.3       1 <0>         0.0000
     22 S1         -2.0492    2.4644    0.7791 S.3       1 <0>         0.0000
     23 Cl1        -0.4502   -6.3727    7.4576 Cl        1 <0>         0.0000
     24 H1         -3.0172   -2.3146    8.1901 H         1 <0>         0.0000
     25 H2         -2.2503   -1.2495    6.0977 H         1 <0>         0.0000
     26 H3         -2.2317   -4.5731    8.8010 H         1 <0>         0.0000
     27 H4          0.1227   -4.7258    5.1954 H         1 <0>         0.0000
     28 H5         -2.4105    4.5137   -1.2989 H         1 <0>         0.0000
     29 H6         -0.7576    5.0967   -1.5064 H         1 <0>         0.0000
     30 H7         -1.1520    3.3963   -1.8378 H         1 <0>         0.0000
     31 H8         -2.4367    5.3604    1.1134 H         1 <0>         0.0000
     32 H9         -0.7841    5.9563    0.9431 H         1 <0>         0.0000
     33 H10        -1.1964    4.8333    2.2564 H         1 <0>         0.0000
     34 H11        -0.1531    0.5335    1.9082 H         1 <0>         0.0000
     35 H12         0.7975    1.7493    1.0822 H         1 <0>         0.0000
     36 H13        -1.6176    0.2727   -0.0585 H         1 <0>         0.0000
     37 H14        -0.7009    1.4813   -0.9501 H         1 <0>         0.0000
     38 H15         2.9484    0.3859    1.4229 H         1 <0>         0.0000
     39 H16         0.5915   -1.2082    0.2610 H         1 <0>         0.0000
     40 H17        -0.0132    3.6330    0.3910 H         1 <0>         0.0000
     41 H18         0.8845    0.1717   -1.5934 H         1 <0>         0.0000
     42 H19         2.2416   -0.6802   -1.2969 H         1 <0>         0.0000
     43 H20         1.2257   -3.3847    4.3060 H         1 <0>         0.0000
     44 H21         0.9630   -2.6038    1.7309 H         1 <0>         0.0000
     45 H22         2.7041   -2.3378    0.6655 H         1 <0>         0.0000
@<TRIPOS>BOND
     1    1    2 ar
     2    1    3 ar
     3    2    5 ar
     4    3    6 ar
     5    4    5 ar
     6    4    6 ar
     7    5    7 1
     8    6   23 1
     9    7   17 am
    10    7   19 2
    11    8   13 1
    12    8   18 am
    13    8   20 2
    14    9   15 1
    15   10   15 1
    16   11   12 1
    17   11   14 1
    18   12   22 1
    19   13   14 1
    20   13   21 1
    21   14   16 1
    22   15   22 1
    23   17   18 1
    24    1   24 1
    25    2   25 1
    26    3   26 1
    27    4   27 1
    28    9   28 1
    29    9   29 1
    30    9   30 1
    31   10   31 1
    32   10   32 1
    33   10   33 1
    34   11   34 1
    35   11   35 1
    36   12   36 1
    37   12   37 1
    38   13   38 1
    39   14   39 1
    40   15   40 1
    41   16   41 1
    42   16   42 1
    43   17   43 1
    44   18   44 1
    45   21   45 1
@<TRIPOS>MOLECULE
LIGAND
   45    45     0     0     0
SMALL
NO_CHARGES

@<TRIPOS>ATOM
      1 C1         -2.1326   -2.6043    7.7561 C.ar      1 <0>         0.0000
      2 C2         -1.7551   -2.3302    6.4416 C.ar      1 <0>         0.0000
      3 C3         -1.6491   -1.8151    8.7997 C.ar      1 <0>         0.0000
      4 C4         -0.4104   -0.4776    7.2142 C.ar      1 <0>         0.0000
      5 C5         -0.8940   -1.2668    6.1707 C.ar      1 <0>         0.0000
      6 C6         -0.7879   -0.7518    8.5287 C.ar      1 <0>         0.0000
      7 C7         -0.4919   -0.9759    4.7701 C.2       1 <0>         0.0000
      8 C8          1.9325   -1.0133    2.6768 C.2       1 <0>         0.0000
      9 C9          0.2249   -1.3614   -4.8293 C.3       1 <0>         0.0000
     10 C10         2.4955   -0.4691   -5.4530 C.3       1 <0>         0.0000
     11 C11         1.5761    0.1765   -1.0474 C.3       1 <0>         0.0000
     12 C12         0.4360    0.4372   -2.0380 C.3       1 <0>         0.0000
     13 C13         2.3649   -0.5352    1.2935 C.3       1 <0>         0.0000
     14 C14         1.1534   -0.2750    0.3710 C.3       1 <0>         0.0000
     15 C15         1.4734   -0.6402   -4.3356 C.3       1 <0>         0.0000
     16 N1          0.3597   -1.5080    0.3138 N.3       1 <0>         0.0000
     17 N2          0.7320   -0.3536    4.6161 N.am      1 <0>         0.0000
     18 N3          1.1743   -0.0714    3.3469 N.am      1 <0>         0.0000
     19 O1         -1.2351   -1.3059    3.8493 O.2       1 <0>         0.0000
     20 O2          2.2555   -2.1109    3.1269 O.2       1 <0>         0.0000
     21 O3          3.2186   -1.5159    0.7230 O.3       1 <0>         0.0000
     22 S1          1.0200    0.9781   -3.6711 S.3       1 <0>         0.0000
     23 Cl1        -0.1920    0.2220    9.8169 Cl        1 <0>         0.0000
     24 H1         -2.8034   -3.4321    7.9668 H         1 <0>         0.0000
     25 H2         -2.1385   -2.9523    5.6369 H         1 <0>         0.0000
     26 H3         -1.9519   -2.0407    9.8189 H         1 <0>         0.0000
     27 H4          0.2608    0.3516    6.9998 H         1 <0>         0.0000
     28 H5         -0.2418   -0.7988   -5.6457 H         1 <0>         0.0000
     29 H6          0.4667   -2.3574   -5.2167 H         1 <0>         0.0000
     30 H7         -0.5235   -1.4725   -4.0365 H         1 <0>         0.0000
     31 H8          2.0637    0.1071   -6.2789 H         1 <0>         0.0000
     32 H9          2.8077   -1.4375   -5.8596 H         1 <0>         0.0000
     33 H10         3.3894    0.0650   -5.1112 H         1 <0>         0.0000
     34 H11         2.1631    1.1018   -0.9736 H         1 <0>         0.0000
     35 H12         2.2520   -0.5707   -1.4824 H         1 <0>         0.0000
     36 H13        -0.2073    1.2295   -1.6408 H         1 <0>         0.0000
     37 H14        -0.1907   -0.4501   -2.1649 H         1 <0>         0.0000
     38 H15         2.9484    0.3859    1.4229 H         1 <0>         0.0000
     39 H16         0.5249    0.4957    0.8291 H         1 <0>         0.0000
     40 H17         1.9240   -1.2177   -3.5214 H         1 <0>         0.0000
     41 H18        -0.4842   -1.3249   -0.2178 H         1 <0>         0.0000
     42 H19         0.0690   -1.7492    1.2550 H         1 <0>         0.0000
     43 H20         1.2931   -0.1098    5.4249 H         1 <0>         0.0000
     44 H21         0.9480    0.8148    2.9078 H         1 <0>         0.0000
     45 H22         2.7041   -2.3378    0.6655 H         1 <0>         0.0000
@<TRIPOS>BOND
     1    1    2 ar
     2    1    3 ar
     3    2    5 ar
     4    3    6 ar
     5    4    5 ar
     6    4    6 ar
     7    5    7 1
     8    6   23 1
     9    7   17 am
    10    7   19 2
    11    8   13 1
    12    8   18 am
    13    8   20 2
    14    9   15 1
    15   10   15 1
    16   11   12 1
    17   11   14 1
    18   12   22 1
    19   13   14 1
    20   13   21 1
    21   14   16 1
    22   15   22 1
    23   17   18 1
    24    1   24 1
    25    2   25 1
    26    3   26 1
    27    4   27 1
    28    9   28 1
    29    9   29 1
    30    9   30 1
    31   10   31 1
    32   10   32 1
    33   10   33 1
    34   11   34 1
    35   11   35 1
    36   12   36 1
    37   12   37 1
    38   13   38 1
    39   14   39 1
    40   15   40 1
    41   16   41 1
    42   16   42 1
    43   17   43 1
    44   18   44 1
    45   21   45 1
@<TRIPOS>MOLECULE
LIGAND
   45    45     0     0     0
SMALL
NO_CHARGES

@<TRIPOS>ATOM
      1 C1         -0.2959   -1.7283    8.4655 C.ar      1 <0>         0.0000
      2 C2          0.0807   -1.4558    7.1504 C.ar      1 <0>         0.0000
      3 C3         -1.6473   -1.8121    8.8008 C.ar      1 <0>         0.0000
      4 C4         -2.2454   -1.3505    6.5060 C.ar      1 <0>         0.0000
      5 C5         -0.8940   -1.2668    6.1707 C.ar      1 <0>         0.0000
      6 C6         -2.6221   -1.6232    7.8211 C.ar      1 <0>         0.0000
      7 C7         -0.4919   -0.9759    4.7701 C.2       1 <0>         0.0000
      8 C8          1.9325   -1.0133    2.6768 C.2       1 <0>         0.0000
      9 C9         -1.2188    2.4860   -4.0715 C.3       1 <0>         0.0000
     10 C10        -0.4191    1.0621   -5.9881 C.3       1 <0>         0.0000
     11 C11         1.5761    0.1765   -1.0474 C.3       1 <0>         0.0000
     12 C12         0.4360    0.4372   -2.0380 C.3       1 <0>         0.0000
     13 C13         2.3649   -0.5352    1.2935 C.3       1 <0>         0.0000
     14 C14         1.1534   -0.2750    0.3710 C.3       1 <0>         0.0000
     15 C15        -0.5876    1.1594   -4.4766 C.3       1 <0>         0.0000
     16 N1          0.3597   -1.5080    0.3138 N.3       1 <0>         0.0000
     17 N2          0.7320   -0.3536    4.6161 N.am      1 <0>         0.0000
     18 N3          1.1743   -0.0714    3.3469 N.am      1 <0>         0.0000
     19 O1         -1.2351   -1.3059    3.8493 O.2       1 <0>         0.0000
     20 O2          2.2555   -2.1109    3.1269 O.2       1 <0>         0.0000
     21 O3          3.2186   -1.5159    0.7230 O.3       1 <0>         0.0000
     22 S1          1.0200    0.9781   -3.6711 S.3       1 <0>         0.0000
     23 Cl1        -4.2894   -1.7271    8.2355 Cl        1 <0>         0.0000
     24 H1          0.4631   -1.8757    9.2280 H         1 <0>         0.0000
     25 H2          1.1369   -1.3929    6.9013 H         1 <0>         0.0000
     26 H3         -1.9258   -2.0251    9.8297 H         1 <0>         0.0000
     27 H4         -3.0036   -1.2033    5.7395 H         1 <0>         0.0000
     28 H5         -0.5957    3.3223   -4.4074 H         1 <0>         0.0000
     29 H6         -2.2073    2.6127   -4.5270 H         1 <0>         0.0000
     30 H7         -1.3270    2.5723   -2.9843 H         1 <0>         0.0000
     31 H8          0.2163    1.8766   -6.3535 H         1 <0>         0.0000
     32 H9         -1.3827    1.1446   -6.5030 H         1 <0>         0.0000
     33 H10         0.0512    0.1184   -6.2872 H         1 <0>         0.0000
     34 H11         2.1631    1.1018   -0.9736 H         1 <0>         0.0000
     35 H12         2.2520   -0.5707   -1.4824 H         1 <0>         0.0000
     36 H13        -0.2073    1.2295   -1.6408 H         1 <0>         0.0000
     37 H14        -0.1907   -0.4501   -2.1649 H         1 <0>         0.0000
     38 H15         2.9484    0.3859    1.4229 H         1 <0>         0.0000
     39 H16         0.5249    0.4957    0.8291 H         1 <0>         0.0000
     40 H17        -1.2247    0.3378   -4.1321 H         1 <0>         0.0000
     41 H18        -0.4842   -1.3249   -0.2178 H         1 <0>         0.0000
     42 H19         0.0690   -1.7492    1.2550 H         1 <0>         0.0000
     43 H20         1.2931   -0.1098    5.4249 H         1 <0>         0.0000
     44 H21         0.9480    0.8148    2.9078 H         1 <0>         0.0000
     45 H22         2.7041   -2.3378    0.6655 H         1 <0>         0.0000
@<TRIPOS>BOND
     1    1    2 ar
     2    1    3 ar
     3    2    5 ar
     4    3    6 ar
     5    4    5 ar
     6    4    6 ar
     7    5    7 1
     8    6   23 1
     9    7   17 am
    10    7   19 2
    11    8   13 1
    12    8   18 am
    13    8   20 2
    14    9   15 1
    15   10   15 1
    16   11   12 1
    17   11   14 1
    18   12   22 1
    19   13   14 1
    20   13   21 1
    21   14   16 1
    22   15   22 1
    23   17   18 1
    24    1   24 1
    25    2   25 1
    26    3   26 1
    27    4   27 1
    28    9   28 1
    29    9   29 1
    30    9   30 1
    31   10   31 1
    32   10   32 1
    33   10   33 1
    34   11   34 1
    35   11   35 1
    36   12   36 1
    37   12   37 1
    38   13   38 1
    39   14   39 1
    40   15   40 1
    41   16   41 1
    42   16   42 1
    43   17   43 1
    44   18   44 1
    45   21   45 1
@<TRIPOS>MOLECULE
LIGAND
   45    45     0     0     0
SMALL
NO_CHARGES

@<TRIPOS>ATOM
      1 C1         -0.9982   -4.7984    7.0345 C.ar      1 <0>         0.0000
      2 C2         -0.5646   -4.1991    5.8520 C.ar      1 <0>         0.0000
      3 C3         -1.8801   -4.1214    7.8770 C.ar      1 <0>         0.0000
      4 C4         -1.8946   -2.2457    6.3543 C.ar      1 <0>         0.0000
      5 C5         -1.0128   -2.9227    5.5119 C.ar      1 <0>         0.0000
      6 C6         -2.3282   -2.8450    7.5369 C.ar      1 <0>         0.0000
      7 C7         -0.5498   -2.2848    4.2523 C.2       1 <0>         0.0000
      8 C8          1.9325   -1.0133    2.6768 C.2       1 <0>         0.0000
      9 C9         -4.2967    1.3927   -0.3375 C.3       1 <0>         0.0000
     10 C10        -4.0071    3.8901   -0.4781 C.3       1 <0>         0.0000
     11 C11         0.2195    0.8307    0.9188 C.3       1 <0>         0.0000
     12 C12        -1.0001    1.1700    0.0549 C.3       1 <0>         0.0000
     13 C13         2.3649   -0.5352    1.2935 C.3       1 <0>         0.0000
     14 C14         1.1534   -0.2750    0.3710 C.3       1 <0>         0.0000
     15 C15        -3.3066    2.5373   -0.5169 C.3       1 <0>         0.0000
     16 N1          1.6681    0.0834   -0.9557 N.3       1 <0>         0.0000
     17 N2          0.6851   -2.6985    3.7909 N.am      1 <0>         0.0000
     18 N3          1.1665   -2.1628    2.6216 N.am      1 <0>         0.0000
     19 O1         -1.2703   -1.4609    3.6944 O.2       1 <0>         0.0000
     20 O2          2.2299   -0.4108    3.7066 O.2       1 <0>         0.0000
     21 O3          3.2186   -1.5159    0.7230 O.3       1 <0>         0.0000
     22 S1         -2.0492    2.4644    0.7791 S.3       1 <0>         0.0000
     23 Cl1        -3.4168   -2.0104    8.5766 Cl        1 <0>         0.0000
     24 H1         -0.6495   -5.7923    7.2990 H         1 <0>         0.0000
     25 H2          0.1227   -4.7366    5.2037 H         1 <0>         0.0000
     26 H3         -2.2094   -4.6010    8.7951 H         1 <0>         0.0000
     27 H4         -2.2430   -1.2503    6.0862 H         1 <0>         0.0000
     28 H5         -4.8186    1.4878    0.6213 H         1 <0>         0.0000
     29 H6         -5.0586    1.3975   -1.1249 H         1 <0>         0.0000
     30 H7         -3.7990    0.4164   -0.3457 H         1 <0>         0.0000
     31 H8         -4.5245    4.0235    0.4785 H         1 <0>         0.0000
     32 H9         -4.7599    3.9723   -1.2700 H         1 <0>         0.0000
     33 H10        -3.2998    4.7201   -0.5881 H         1 <0>         0.0000
     34 H11        -0.1531    0.5335    1.9082 H         1 <0>         0.0000
     35 H12         0.7975    1.7493    1.0822 H         1 <0>         0.0000
     36 H13        -1.6176    0.2727   -0.0585 H         1 <0>         0.0000
     37 H14        -0.7009    1.4813   -0.9501 H         1 <0>         0.0000
     38 H15         2.9484    0.3859    1.4229 H         1 <0>         0.0000
     39 H16         0.5915   -1.2082    0.2610 H         1 <0>         0.0000
     40 H17        -2.7965    2.4239   -1.4795 H         1 <0>         0.0000
     41 H18         0.8845    0.1717   -1.5934 H         1 <0>         0.0000
     42 H19         2.2416   -0.6802   -1.2969 H         1 <0>         0.0000
     43 H20         1.2257   -3.3847    4.3060 H         1 <0>         0.0000
     44 H21         0.9630   -2.6038    1.7309 H         1 <0>         0.0000
     45 H22         2.7041   -2.3378    0.6655 H         1 <0>         0.0000
@<TRIPOS>BOND
     1    1    2 ar
     2    1    3 ar
     3    2    5 ar
     4    3    6 ar
     5    4    5 ar
     6    4    6 ar
     7    5    7 1
     8    6   23 1
     9    7   17 am
    10    7   19 2
    11    8   13 1
    12    8   18 am
    13    8   20 2
    14    9   15 1
    15   10   15 1
    16   11   12 1
    17   11   14 1
    18   12   22 1
    19   13   14 1
    20   13   21 1
    21   14   16 1
    22   15   22 1
    23   17   18 1
    24    1   24 1
    25    2   25 1
    26    3   26 1
    27    4   27 1
    28    9   28 1
    29    9   29 1
    30    9   30 1
    31   10   31 1
    32   10   32 1
    33   10   33 1
    34   11   34 1
    35   11   35 1
    36   12   36 1
    37   12   37 1
    38   13   38 1
    39   14   39 1
    40   15   40 1
    41   16   41 1
    42   16   42 1
    43   17   43 1
    44   18   44 1
    45   21   45 1
@<TRIPOS>MOLECULE
LIGAND
   45    45     0     0     0
SMALL
NO_CHARGES

@<TRIPOS>ATOM
      1 C1         -2.6241   -1.6244    7.8186 C.ar      1 <0>         0.0000
      2 C2         -2.2458   -1.3508    6.5042 C.ar      1 <0>         0.0000
      3 C3         -1.6506   -1.8141    8.7994 C.ar      1 <0>         0.0000
      4 C4          0.0795   -1.4566    7.1515 C.ar      1 <0>         0.0000
      5 C5         -0.8940   -1.2668    6.1707 C.ar      1 <0>         0.0000
      6 C6         -0.2989   -1.7302    8.4659 C.ar      1 <0>         0.0000
      7 C7         -0.4919   -0.9759    4.7701 C.2       1 <0>         0.0000
      8 C8          1.9325   -1.0133    2.6768 C.2       1 <0>         0.0000
      9 C9          1.1606    4.0721   -2.8209 C.3       1 <0>         0.0000
     10 C10         1.1711    2.6068   -4.8686 C.3       1 <0>         0.0000
     11 C11         1.5761    0.1765   -1.0474 C.3       1 <0>         0.0000
     12 C12         2.3784    1.4800   -1.1273 C.3       1 <0>         0.0000
     13 C13         2.3649   -0.5352    1.2935 C.3       1 <0>         0.0000
     14 C14         1.1534   -0.2750    0.3710 C.3       1 <0>         0.0000
     15 C15         1.2741    2.6470   -3.3486 C.3       1 <0>         0.0000
     16 N1          0.3597   -1.5080    0.3138 N.3       1 <0>         0.0000
     17 N2          0.7320   -0.3536    4.6161 N.am      1 <0>         0.0000
     18 N3          1.1743   -0.0714    3.3469 N.am      1 <0>         0.0000
     19 O1         -1.2351   -1.3059    3.8493 O.2       1 <0>         0.0000
     20 O2          2.2555   -2.1109    3.1269 O.2       1 <0>         0.0000
     21 O3          3.2186   -1.5159    0.7230 O.3       1 <0>         0.0000
     22 S1          2.8465    1.9264   -2.8249 S.3       1 <0>         0.0000
     23 Cl1         0.9018   -1.9639    9.6768 Cl        1 <0>         0.0000
     24 H1         -3.6766   -1.6894    8.0781 H         1 <0>         0.0000
     25 H2         -3.0136   -1.2050    5.7487 H         1 <0>         0.0000
     26 H3         -1.9605   -2.0267    9.8194 H         1 <0>         0.0000
     27 H4          1.1333   -1.3900    6.8885 H         1 <0>         0.0000
     28 H5          1.9558    4.6980   -3.2410 H         1 <0>         0.0000
     29 H6          0.2046    4.5270   -3.1034 H         1 <0>         0.0000
     30 H7          1.2520    4.1126   -1.7295 H         1 <0>         0.0000
     31 H8          1.9665    3.2101   -5.3202 H         1 <0>         0.0000
     32 H9          0.2154    3.0160   -5.2145 H         1 <0>         0.0000
     33 H10         1.2700    1.5872   -5.2582 H         1 <0>         0.0000
     34 H11         2.1843   -0.6108   -1.5125 H         1 <0>         0.0000
     35 H12         0.6847    0.2765   -1.6798 H         1 <0>         0.0000
     36 H13         3.3029    1.3655   -0.5514 H         1 <0>         0.0000
     37 H14         1.8267    2.3139   -0.6838 H         1 <0>         0.0000
     38 H15         2.9484    0.3859    1.4229 H         1 <0>         0.0000
     39 H16         0.5249    0.4957    0.8291 H         1 <0>         0.0000
     40 H17         0.4716    2.0389   -2.9175 H         1 <0>         0.0000
     41 H18        -0.4842   -1.3249   -0.2178 H         1 <0>         0.0000
     42 H19         0.0690   -1.7492    1.2550 H         1 <0>         0.0000
     43 H20         1.2931   -0.1098    5.4249 H         1 <0>         0.0000
     44 H21         0.9480    0.8148    2.9078 H         1 <0>         0.0000
     45 H22         2.7041   -2.3378    0.6655 H         1 <0>         0.0000
@<TRIPOS>BOND
     1    1    2 ar
     2    1    3 ar
     3    2    5 ar
     4    3    6 ar
     5    4    5 ar
     6    4    6 ar
     7    5    7 1
     8    6   23 1
     9    7   17 am
    10    7   19 2
    11    8   13 1
    12    8   18 am
    13    8   20 2
    14    9   15 1
    15   10   15 1
    16   11   12 1
    17   11   14 1
    18   12   22 1
    19   13   14 1
    20   13   21 1
    21   14   16 1
    22   15   22 1
    23   17   18 1
    24    1   24 1
    25    2   25 1
    26    3   26 1
    27    4   27 1
    28    9   28 1
    29    9   29 1
    30    9   30 1
    31   10   31 1
    32   10   32 1
    33   10   33 1
    34   11   34 1
    35   11   35 1
    36   12   36 1
    37   12   37 1
    38   13   38 1
    39   14   39 1
    40   15   40 1
    41   16   41 1
    42   16   42 1
    43   17   43 1
    44   18   44 1
    45   21   45 1
@<TRIPOS>MOLECULE
LIGAND
   45    45     0     0     0
SMALL
NO_CHARGES

@<TRIPOS>ATOM
      1 C1          1.2491   -0.2643    9.4993 C.ar      1 <0>         0.0000
      2 C2          1.4776    0.1988    8.2036 C.ar      1 <0>         0.0000
      3 C3          1.1939   -1.6354    9.7503 C.ar      1 <0>         0.0000
      4 C4          1.5955   -2.0801    7.4098 C.ar      1 <0>         0.0000
      5 C5          1.6507   -0.7090    7.1588 C.ar      1 <0>         0.0000
      6 C6          1.3670   -2.5432    8.7056 C.ar      1 <0>         0.0000
      7 C7          1.8934   -0.2148    5.7787 C.2       1 <0>         0.0000
      8 C8          1.9325   -1.0133    2.6768 C.2       1 <0>         0.0000
      9 C9          1.2774    4.2514    3.3007 C.3       1 <0>         0.0000
     10 C10        -1.1278    3.9215    3.9688 C.3       1 <0>         0.0000
     11 C11         0.2195    0.8307    0.9188 C.3       1 <0>         0.0000
     12 C12         0.6810    2.2745    0.6917 C.3       1 <0>         0.0000
     13 C13         2.3649   -0.5352    1.2935 C.3       1 <0>         0.0000
     14 C14         1.1534   -0.2750    0.3710 C.3       1 <0>         0.0000
     15 C15         0.0131    3.4276    3.0875 C.3       1 <0>         0.0000
     16 N1          1.6681    0.0834   -0.9557 N.3       1 <0>         0.0000
     17 N2          2.6023   -1.0670    4.9540 N.am      1 <0>         0.0000
     18 N3          2.8469   -0.6810    3.6590 N.am      1 <0>         0.0000
     19 O1          1.4534    0.8829    5.4461 O.2       1 <0>         0.0000
     20 O2          0.8915   -1.6405    2.8632 O.2       1 <0>         0.0000
     21 O3          3.2186   -1.5159    0.7230 O.3       1 <0>         0.0000
     22 S1         -0.4802    3.5064    1.3507 S.3       1 <0>         0.0000
     23 Cl1         1.2993   -4.2348    9.0161 Cl        1 <0>         0.0000
     24 H1          1.1146    0.4426   10.3126 H         1 <0>         0.0000
     25 H2          1.5183    1.2695    8.0204 H         1 <0>         0.0000
     26 H3          1.0151   -1.9815   10.7651 H         1 <0>         0.0000
     27 H4          1.7315   -2.7860    6.5930 H         1 <0>         0.0000
     28 H5          1.0885    5.3055    3.0685 H         1 <0>         0.0000
     29 H6          1.6142    4.2026    4.3422 H         1 <0>         0.0000
     30 H7          2.0982    3.9147    2.6572 H         1 <0>         0.0000
     31 H8         -1.3537    4.9705    3.7469 H         1 <0>         0.0000
     32 H9         -0.8656    3.8623    5.0311 H         1 <0>         0.0000
     33 H10        -2.0468    3.3461    3.8086 H         1 <0>         0.0000
     34 H11        -0.7725    0.7284    0.4588 H         1 <0>         0.0000
     35 H12         0.0656    0.6790    1.9948 H         1 <0>         0.0000
     36 H13         0.7739    2.4540   -0.3847 H         1 <0>         0.0000
     37 H14         1.6670    2.4502    1.1313 H         1 <0>         0.0000
     38 H15         2.9484    0.3859    1.4229 H         1 <0>         0.0000
     39 H16         0.5915   -1.2082    0.2610 H         1 <0>         0.0000
     40 H17         0.2228    2.3791    3.3246 H         1 <0>         0.0000
     41 H18         0.8845    0.1717   -1.5934 H         1 <0>         0.0000
     42 H19         2.2416   -0.6802   -1.2969 H         1 <0>         0.0000
     43 H20         2.9356   -1.9607    5.2985 H         1 <0>         0.0000
     44 H21         3.6858   -0.1599    3.4266 H         1 <0>         0.0000
     45 H22         2.7041   -2.3378    0.6655 H         1 <0>         0.0000
@<TRIPOS>BOND
     1    1    2 ar
     2    1    3 ar
     3    2    5 ar
     4    3    6 ar
     5    4    5 ar
     6    4    6 ar
     7    5    7 1
     8    6   23 1
     9    7   17 am
    10    7   19 2
    11    8   13 1
    12    8   18 am
    13    8   20 2
    14    9   15 1
    15   10   15 1
    16   11   12 1
    17   11   14 1
    18   12   22 1
    19   13   14 1
    20   13   21 1
    21   14   16 1
    22   15   22 1
    23   17   18 1
    24    1   24 1
    25    2   25 1
    26    3   26 1
    27    4   27 1
    28    9   28 1
    29    9   29 1
    30    9   30 1
    31   10   31 1
    32   10   32 1
    33   10   33 1
    34   11   34 1
    35   11   35 1
    36   12   36 1
    37   12   37 1
    38   13   38 1
    39   14   39 1
    40   15   40 1
    41   16   41 1
    42   16   42 1
    43   17   43 1
    44   18   44 1
    45   21   45 1
@<TRIPOS>MOLECULE
LIGAND
   45    45     0     0     0
SMALL
NO_CHARGES

@<TRIPOS>ATOM
      1 C1         -0.7874   -0.7484    8.5279 C.ar      1 <0>         0.0000
      2 C2         -0.4100   -0.4763    7.2130 C.ar      1 <0>         0.0000
      3 C3         -1.6489   -1.8111    8.8006 C.ar      1 <0>         0.0000
      4 C4         -1.7555   -2.3295    6.4433 C.ar      1 <0>         0.0000
      5 C5         -0.8940   -1.2668    6.1707 C.ar      1 <0>         0.0000
      6 C6         -2.1330   -2.6016    7.7583 C.ar      1 <0>         0.0000
      7 C7         -0.4919   -0.9759    4.7701 C.2       1 <0>         0.0000
      8 C8          1.9325   -1.0133    2.6768 C.2       1 <0>         0.0000
      9 C9          1.1606    4.0721   -2.8209 C.3       1 <0>         0.0000
     10 C10         1.1711    2.6068   -4.8686 C.3       1 <0>         0.0000
     11 C11         1.5761    0.1765   -1.0474 C.3       1 <0>         0.0000
     12 C12         2.3784    1.4800   -1.1273 C.3       1 <0>         0.0000
     13 C13         2.3649   -0.5352    1.2935 C.3       1 <0>         0.0000
     14 C14         1.1534   -0.2750    0.3710 C.3       1 <0>         0.0000
     15 C15         1.2741    2.6470   -3.3486 C.3       1 <0>         0.0000
     16 N1          0.3597   -1.5080    0.3138 N.3       1 <0>         0.0000
     17 N2          0.7320   -0.3536    4.6161 N.am      1 <0>         0.0000
     18 N3          1.1743   -0.0714    3.3469 N.am      1 <0>         0.0000
     19 O1         -1.2351   -1.3059    3.8493 O.2       1 <0>         0.0000
     20 O2          2.2555   -2.1109    3.1269 O.2       1 <0>         0.0000
     21 O3          3.2186   -1.5159    0.7230 O.3       1 <0>         0.0000
     22 S1          2.8465    1.9264   -2.8249 S.3       1 <0>         0.0000
     23 Cl1        -3.1956   -3.9130    8.0955 Cl        1 <0>         0.0000
     24 H1         -0.4102   -0.1330    9.3393 H         1 <0>         0.0000
     25 H2          0.2618    0.3545    7.0131 H         1 <0>         0.0000
     26 H3         -1.9343   -2.0111    9.8301 H         1 <0>         0.0000
     27 H4         -2.1312   -2.9448    5.6282 H         1 <0>         0.0000
     28 H5          1.9558    4.6980   -3.2410 H         1 <0>         0.0000
     29 H6          0.2046    4.5270   -3.1034 H         1 <0>         0.0000
     30 H7          1.2520    4.1126   -1.7295 H         1 <0>         0.0000
     31 H8          1.9665    3.2101   -5.3202 H         1 <0>         0.0000
     32 H9          0.2154    3.0160   -5.2145 H         1 <0>         0.0000
     33 H10         1.2700    1.5872   -5.2582 H         1 <0>         0.0000
     34 H11         2.1843   -0.6108   -1.5125 H         1 <0>         0.0000
     35 H12         0.6847    0.2765   -1.6798 H         1 <0>         0.0000
     36 H13         3.3029    1.3655   -0.5514 H         1 <0>         0.0000
     37 H14         1.8267    2.3139   -0.6838 H         1 <0>         0.0000
     38 H15         2.9484    0.3859    1.4229 H         1 <0>         0.0000
     39 H16         0.5249    0.4957    0.8291 H         1 <0>         0.0000
     40 H17         0.4716    2.0389   -2.9175 H         1 <0>         0.0000
     41 H18        -0.4842   -1.3249   -0.2178 H         1 <0>         0.0000
     42 H19         0.0690   -1.7492    1.2550 H         1 <0>         0.0000
     43 H20         1.2931   -0.1098    5.4249 H         1 <0>         0.0000
     44 H21         0.9480    0.8148    2.9078 H         1 <0>         0.0000
     45 H22         2.7041   -2.3378    0.6655 H         1 <0>         0.0000
@<TRIPOS>BOND
     1    1    2 ar
     2    1    3 ar
     3    2    5 ar
     4    3    6 ar
     5    4    5 ar
     6    4    6 ar
     7    5    7 1
     8    6   23 1
     9    7   17 am
    10    7   19 2
    11    8   13 1
    12    8   18 am
    13    8   20 2
    14    9   15 1
    15   10   15 1
    16   11   12 1
    17   11   14 1
    18   12   22 1
    19   13   14 1
    20   13   21 1
    21   14   16 1
    22   15   22 1
    23   17   18 1
    24    1   24 1
    25    2   25 1
    26    3   26 1
    27    4   27 1
    28    9   28 1
    29    9   29 1
    30    9   30 1
    31   10   31 1
    32   10   32 1
    33   10   33 1
    34   11   34 1
    35   11   35 1
    36   12   36 1
    37   12   37 1
    38   13   38 1
    39   14   39 1
    40   15   40 1
    41   16   41 1
    42   16   42 1
    43   17   43 1
    44   18   44 1
    45   21   45 1
@<TRIPOS>MOLECULE
LIGAND
   45    45     0     0     0
SMALL
NO_CHARGES

@<TRIPOS>ATOM
      1 C1         -0.4443   -1.6789    8.4406 C.ar      1 <0>         0.0000
      2 C2          0.0752   -1.3786    7.1814 C.ar      1 <0>         0.0000
      3 C3         -0.0644   -0.9236    9.5500 C.ar      1 <0>         0.0000
      4 C4          1.3546    0.4323    8.1411 C.ar      1 <0>         0.0000
      5 C5          0.9746   -0.3231    7.0316 C.ar      1 <0>         0.0000
      6 C6          0.8350    0.1320    9.4003 C.ar      1 <0>         0.0000
      7 C7          1.5280   -0.0043    5.6900 C.2       1 <0>         0.0000
      8 C8          1.9325   -1.0133    2.6768 C.2       1 <0>         0.0000
      9 C9         -3.1756    2.3246   -2.4935 C.3       1 <0>         0.0000
     10 C10        -1.2120    2.4385   -4.0656 C.3       1 <0>         0.0000
     11 C11         1.5761    0.1765   -1.0474 C.3       1 <0>         0.0000
     12 C12         0.4360    0.4372   -2.0380 C.3       1 <0>         0.0000
     13 C13         2.3649   -0.5352    1.2935 C.3       1 <0>         0.0000
     14 C14         1.1534   -0.2750    0.3710 C.3       1 <0>         0.0000
     15 C15        -1.8423    1.7019   -2.8899 C.3       1 <0>         0.0000
     16 N1          0.3597   -1.5080    0.3138 N.3       1 <0>         0.0000
     17 N2          0.7320   -0.3536    4.6161 N.am      1 <0>         0.0000
     18 N3          1.1743   -0.0714    3.3469 N.am      1 <0>         0.0000
     19 O1          2.6215    0.5492    5.6056 O.2       1 <0>         0.0000
     20 O2          2.2555   -2.1109    3.1269 O.2       1 <0>         0.0000
     21 O3          3.2186   -1.5159    0.7230 O.3       1 <0>         0.0000
     22 S1         -0.7139    1.7277   -1.4786 S.3       1 <0>         0.0000
     23 Cl1         1.3030    1.0639   10.7696 Cl        1 <0>         0.0000
     24 H1         -1.1448   -2.5006    8.5569 H         1 <0>         0.0000
     25 H2         -0.2283   -1.9745    6.3244 H         1 <0>         0.0000
     26 H3         -0.4775   -1.1693   10.5250 H         1 <0>         0.0000
     27 H4          2.0560    1.2555    8.0212 H         1 <0>         0.0000
     28 H5         -3.0368    3.3747   -2.2131 H         1 <0>         0.0000
     29 H6         -3.8895    2.3010   -3.3245 H         1 <0>         0.0000
     30 H7         -3.6275    1.8123   -1.6365 H         1 <0>         0.0000
     31 H8         -1.0430    3.4904   -3.8095 H         1 <0>         0.0000
     32 H9         -1.8649    2.4183   -4.9453 H         1 <0>         0.0000
     33 H10        -0.2436    2.0085   -4.3458 H         1 <0>         0.0000
     34 H11         2.1631    1.1018   -0.9736 H         1 <0>         0.0000
     35 H12         2.2520   -0.5707   -1.4824 H         1 <0>         0.0000
     36 H13        -0.1421   -0.4839   -2.1668 H         1 <0>         0.0000
     37 H14         0.8216    0.7132   -3.0237 H         1 <0>         0.0000
     38 H15         2.9484    0.3859    1.4229 H         1 <0>         0.0000
     39 H16         0.5249    0.4957    0.8291 H         1 <0>         0.0000
     40 H17        -2.0027    0.6542   -3.1661 H         1 <0>         0.0000
     41 H18        -0.4842   -1.3249   -0.2178 H         1 <0>         0.0000
     42 H19         0.0690   -1.7492    1.2550 H         1 <0>         0.0000
     43 H20        -0.1619   -0.8097    4.7623 H         1 <0>         0.0000
     44 H21         0.9480    0.8148    2.9078 H         1 <0>         0.0000
     45 H22         2.7041   -2.3378    0.6655 H         1 <0>         0.0000
@<TRIPOS>BOND
     1    1    2 ar
     2    1    3 ar
     3    2    5 ar
     4    3    6 ar
     5    4    5 ar
     6    4    6 ar
     7    5    7 1
     8    6   23 1
     9    7   17 am
    10    7   19 2
    11    8   13 1
    12    8   18 am
    13    8   20 2
    14    9   15 1
    15   10   15 1
    16   11   12 1
    17   11   14 1
    18   12   22 1
    19   13   14 1
    20   13   21 1
    21   14   16 1
    22   15   22 1
    23   17   18 1
    24    1   24 1
    25    2   25 1
    26    3   26 1
    27    4   27 1
    28    9   28 1
    29    9   29 1
    30    9   30 1
    31   10   31 1
    32   10   32 1
    33   10   33 1
    34   11   34 1
    35   11   35 1
    36   12   36 1
    37   12   37 1
    38   13   38 1
    39   14   39 1
    40   15   40 1
    41   16   41 1
    42   16   42 1
    43   17   43 1
    44   18   44 1
    45   21   45 1
@<TRIPOS>MOLECULE
LIGAND
   45    45     0     0     0
SMALL
NO_CHARGES

@<TRIPOS>ATOM
      1 C1         -2.3305   -2.8430    7.5352 C.ar      1 <0>         0.0000
      2 C2         -1.8950   -2.2446    6.3529 C.ar      1 <0>         0.0000
      3 C3         -1.8838   -4.1195    7.8766 C.ar      1 <0>         0.0000
      4 C4         -0.5660   -4.1993    5.8532 C.ar      1 <0>         0.0000
      5 C5         -1.0128   -2.9227    5.5119 C.ar      1 <0>         0.0000
      6 C6         -1.0015   -4.7977    7.0355 C.ar      1 <0>         0.0000
      7 C7         -0.5498   -2.2848    4.2523 C.2       1 <0>         0.0000
      8 C8          1.9325   -1.0133    2.6768 C.2       1 <0>         0.0000
      9 C9         -4.0623    0.8550    1.3177 C.3       1 <0>         0.0000
     10 C10        -3.5584   -1.5885    1.6583 C.3       1 <0>         0.0000
     11 C11         0.2195    0.8307    0.9188 C.3       1 <0>         0.0000
     12 C12        -1.0001    1.1700    0.0549 C.3       1 <0>         0.0000
     13 C13         2.3649   -0.5352    1.2935 C.3       1 <0>         0.0000
     14 C14         1.1534   -0.2750    0.3710 C.3       1 <0>         0.0000
     15 C15        -2.9754   -0.2124    1.3599 C.3       1 <0>         0.0000
     16 N1          1.6681    0.0834   -0.9557 N.3       1 <0>         0.0000
     17 N2          0.6851   -2.6985    3.7909 N.am      1 <0>         0.0000
     18 N3          1.1665   -2.1628    2.6216 N.am      1 <0>         0.0000
     19 O1         -1.2703   -1.4609    3.6944 O.2       1 <0>         0.0000
     20 O2          2.2299   -0.4108    3.7066 O.2       1 <0>         0.0000
     21 O3          3.2186   -1.5159    0.7230 O.3       1 <0>         0.0000
     22 S1         -2.0977   -0.2515   -0.2193 S.3       1 <0>         0.0000
     23 Cl1        -0.4502   -6.3727    7.4576 Cl        1 <0>         0.0000
     24 H1         -3.0172   -2.3146    8.1901 H         1 <0>         0.0000
     25 H2         -2.2503   -1.2495    6.0977 H         1 <0>         0.0000
     26 H3         -2.2317   -4.5731    8.8010 H         1 <0>         0.0000
     27 H4          0.1227   -4.7258    5.1954 H         1 <0>         0.0000
     28 H5         -4.8019    0.6148    0.5457 H         1 <0>         0.0000
     29 H6         -4.5966    0.9180    2.2722 H         1 <0>         0.0000
     30 H7         -3.6542    1.8453    1.0855 H         1 <0>         0.0000
     31 H8         -4.2902   -1.8663    0.8915 H         1 <0>         0.0000
     32 H9         -4.0769   -1.6012    2.6234 H         1 <0>         0.0000
     33 H10        -2.7856   -2.3656    1.6725 H         1 <0>         0.0000
     34 H11        -0.1531    0.5335    1.9082 H         1 <0>         0.0000
     35 H12         0.7975    1.7493    1.0822 H         1 <0>         0.0000
     36 H13        -0.6573    1.5138   -0.9268 H         1 <0>         0.0000
     37 H14        -1.5832    1.9849    0.4933 H         1 <0>         0.0000
     38 H15         2.9484    0.3859    1.4229 H         1 <0>         0.0000
     39 H16         0.5915   -1.2082    0.2610 H         1 <0>         0.0000
     40 H17        -2.2476    0.0460    2.1366 H         1 <0>         0.0000
     41 H18         0.8845    0.1717   -1.5934 H         1 <0>         0.0000
     42 H19         2.2416   -0.6802   -1.2969 H         1 <0>         0.0000
     43 H20         1.2257   -3.3847    4.3060 H         1 <0>         0.0000
     44 H21         0.9630   -2.6038    1.7309 H         1 <0>         0.0000
     45 H22         2.7041   -2.3378    0.6655 H         1 <0>         0.0000
@<TRIPOS>BOND
     1    1    2 ar
     2    1    3 ar
     3    2    5 ar
     4    3    6 ar
     5    4    5 ar
     6    4    6 ar
     7    5    7 1
     8    6   23 1
     9    7   17 am
    10    7   19 2
    11    8   13 1
    12    8   18 am
    13    8   20 2
    14    9   15 1
    15   10   15 1
    16   11   12 1
    17   11   14 1
    18   12   22 1
    19   13   14 1
    20   13   21 1
    21   14   16 1
    22   15   22 1
    23   17   18 1
    24    1   24 1
    25    2   25 1
    26    3   26 1
    27    4   27 1
    28    9   28 1
    29    9   29 1
    30    9   30 1
    31   10   31 1
    32   10   32 1
    33   10   33 1
    34   11   34 1
    35   11   35 1
    36   12   36 1
    37   12   37 1
    38   13   38 1
    39   14   39 1
    40   15   40 1
    41   16   41 1
    42   16   42 1
    43   17   43 1
    44   18   44 1
    45   21   45 1
@<TRIPOS>MOLECULE
LIGAND
   45    45     0     0     0
SMALL
NO_CHARGES

@<TRIPOS>ATOM
      1 C1         -0.5558   -3.8525    7.6500 C.ar      1 <0>         0.0000
      2 C2         -0.0131   -3.3653    6.4611 C.ar      1 <0>         0.0000
      3 C3         -0.2084   -5.1243    8.1058 C.ar      1 <0>         0.0000
      4 C4          1.2244   -5.4217    6.1834 C.ar      1 <0>         0.0000
      5 C5          0.8770   -4.1499    5.7277 C.ar      1 <0>         0.0000
      6 C6          0.6817   -5.9089    7.3724 C.ar      1 <0>         0.0000
      7 C7          1.4542   -3.6304    4.4609 C.2       1 <0>         0.0000
      8 C8          1.9325   -1.0133    2.6768 C.2       1 <0>         0.0000
      9 C9         -4.1299   -0.4675   -2.0276 C.3       1 <0>         0.0000
     10 C10        -4.2566    1.4118   -0.3565 C.3       1 <0>         0.0000
     11 C11         0.2195    0.8307    0.9188 C.3       1 <0>         0.0000
     12 C12        -1.0001    1.1700    0.0549 C.3       1 <0>         0.0000
     13 C13         2.3649   -0.5352    1.2935 C.3       1 <0>         0.0000
     14 C14         1.1534   -0.2750    0.3710 C.3       1 <0>         0.0000
     15 C15        -3.3416    0.5718   -1.2395 C.3       1 <0>         0.0000
     16 N1          1.6681    0.0834   -0.9557 N.3       1 <0>         0.0000
     17 N2          0.6851   -2.6985    3.7909 N.am      1 <0>         0.0000
     18 N3          1.1665   -2.1628    2.6216 N.am      1 <0>         0.0000
     19 O1          2.5559   -4.0300    4.0926 O.2       1 <0>         0.0000
     20 O2          2.2299   -0.4108    3.7066 O.2       1 <0>         0.0000
     21 O3          3.2186   -1.5159    0.7230 O.3       1 <0>         0.0000
     22 S1         -2.0977   -0.2515   -0.2193 S.3       1 <0>         0.0000
     23 Cl1         1.1103   -7.4778    7.9355 Cl        1 <0>         0.0000
     24 H1         -1.2485   -3.2413    8.2210 H         1 <0>         0.0000
     25 H2         -0.2915   -2.3728    6.1162 H         1 <0>         0.0000
     26 H3         -0.6392   -5.4905    9.0340 H         1 <0>         0.0000
     27 H4          1.9195   -6.0313    5.6095 H         1 <0>         0.0000
     28 H5         -4.6663   -1.1363   -1.3453 H         1 <0>         0.0000
     29 H6         -4.8772    0.0053   -2.6747 H         1 <0>         0.0000
     30 H7         -3.4774   -1.0886   -2.6519 H         1 <0>         0.0000
     31 H8         -4.7949    0.7719    0.3515 H         1 <0>         0.0000
     32 H9         -5.0077    1.9429   -0.9517 H         1 <0>         0.0000
     33 H10        -3.6957    2.1500    0.2280 H         1 <0>         0.0000
     34 H11        -0.1531    0.5335    1.9082 H         1 <0>         0.0000
     35 H12         0.7975    1.7493    1.0822 H         1 <0>         0.0000
     36 H13        -0.6573    1.5138   -0.9268 H         1 <0>         0.0000
     37 H14        -1.5832    1.9849    0.4933 H         1 <0>         0.0000
     38 H15         2.9484    0.3859    1.4229 H         1 <0>         0.0000
     39 H16         0.5915   -1.2082    0.2610 H         1 <0>         0.0000
     40 H17        -2.8138    1.2291   -1.9386 H         1 <0>         0.0000
     41 H18         0.8845    0.1717   -1.5934 H         1 <0>         0.0000
     42 H19         2.2416   -0.6802   -1.2969 H         1 <0>         0.0000
     43 H20        -0.2179   -2.4154    4.1557 H         1 <0>         0.0000
     44 H21         0.9630   -2.6038    1.7309 H         1 <0>         0.0000
     45 H22         2.7041   -2.3378    0.6655 H         1 <0>         0.0000
@<TRIPOS>BOND
     1    1    2 ar
     2    1    3 ar
     3    2    5 ar
     4    3    6 ar
     5    4    5 ar
     6    4    6 ar
     7    5    7 1
     8    6   23 1
     9    7   17 am
    10    7   19 2
    11    8   13 1
    12    8   18 am
    13    8   20 2
    14    9   15 1
    15   10   15 1
    16   11   12 1
    17   11   14 1
    18   12   22 1
    19   13   14 1
    20   13   21 1
    21   14   16 1
    22   15   22 1
    23   17   18 1
    24    1   24 1
    25    2   25 1
    26    3   26 1
    27    4   27 1
    28    9   28 1
    29    9   29 1
    30    9   30 1
    31   10   31 1
    32   10   32 1
    33   10   33 1
    34   11   34 1
    35   11   35 1
    36   12   36 1
    37   12   37 1
    38   13   38 1
    39   14   39 1
    40   15   40 1
    41   16   41 1
    42   16   42 1
    43   17   43 1
    44   18   44 1
    45   21   45 1
@<TRIPOS>MOLECULE
LIGAND
   45    45     0     0     0
SMALL
NO_CHARGES

@<TRIPOS>ATOM
      1 C1         -0.9264   -0.6930    8.4760 C.ar      1 <0>         0.0000
      2 C2         -0.4061   -0.3932    7.2170 C.ar      1 <0>         0.0000
      3 C3         -0.0659   -0.9225    9.5497 C.ar      1 <0>         0.0000
      4 C4          1.8351   -0.5526    8.1053 C.ar      1 <0>         0.0000
      5 C5          0.9746   -0.3231    7.0316 C.ar      1 <0>         0.0000
      6 C6          1.3148   -0.8524    9.3643 C.ar      1 <0>         0.0000
      7 C7          1.5280   -0.0043    5.6900 C.2       1 <0>         0.0000
      8 C8          1.9325   -1.0133    2.6768 C.2       1 <0>         0.0000
      9 C9         -3.1756    2.3246   -2.4935 C.3       1 <0>         0.0000
     10 C10        -1.2120    2.4385   -4.0656 C.3       1 <0>         0.0000
     11 C11         1.5761    0.1765   -1.0474 C.3       1 <0>         0.0000
     12 C12         0.4360    0.4372   -2.0380 C.3       1 <0>         0.0000
     13 C13         2.3649   -0.5352    1.2935 C.3       1 <0>         0.0000
     14 C14         1.1534   -0.2750    0.3710 C.3       1 <0>         0.0000
     15 C15        -1.8423    1.7019   -2.8899 C.3       1 <0>         0.0000
     16 N1          0.3597   -1.5080    0.3138 N.3       1 <0>         0.0000
     17 N2          0.7320   -0.3536    4.6161 N.am      1 <0>         0.0000
     18 N3          1.1743   -0.0714    3.3469 N.am      1 <0>         0.0000
     19 O1          2.6215    0.5492    5.6056 O.2       1 <0>         0.0000
     20 O2          2.2555   -2.1109    3.1269 O.2       1 <0>         0.0000
     21 O3          3.2186   -1.5159    0.7230 O.3       1 <0>         0.0000
     22 S1         -0.7139    1.7277   -1.4786 S.3       1 <0>         0.0000
     23 Cl1         2.3759   -1.1353   10.6896 Cl        1 <0>         0.0000
     24 H1         -2.0014   -0.7472    8.6202 H         1 <0>         0.0000
     25 H2         -1.0867   -0.2164    6.3881 H         1 <0>         0.0000
     26 H3         -0.4859   -1.1551   10.5249 H         1 <0>         0.0000
     27 H4          2.9117   -0.4967    7.9578 H         1 <0>         0.0000
     28 H5         -3.0368    3.3747   -2.2131 H         1 <0>         0.0000
     29 H6         -3.8895    2.3010   -3.3245 H         1 <0>         0.0000
     30 H7         -3.6275    1.8123   -1.6365 H         1 <0>         0.0000
     31 H8         -1.0430    3.4904   -3.8095 H         1 <0>         0.0000
     32 H9         -1.8649    2.4183   -4.9453 H         1 <0>         0.0000
     33 H10        -0.2436    2.0085   -4.3458 H         1 <0>         0.0000
     34 H11         2.1631    1.1018   -0.9736 H         1 <0>         0.0000
     35 H12         2.2520   -0.5707   -1.4824 H         1 <0>         0.0000
     36 H13        -0.1421   -0.4839   -2.1668 H         1 <0>         0.0000
     37 H14         0.8216    0.7132   -3.0237 H         1 <0>         0.0000
     38 H15         2.9484    0.3859    1.4229 H         1 <0>         0.0000
     39 H16         0.5249    0.4957    0.8291 H         1 <0>         0.0000
     40 H17        -2.0027    0.6542   -3.1661 H         1 <0>         0.0000
     41 H18        -0.4842   -1.3249   -0.2178 H         1 <0>         0.0000
     42 H19         0.0690   -1.7492    1.2550 H         1 <0>         0.0000
     43 H20        -0.1619   -0.8097    4.7623 H         1 <0>         0.0000
     44 H21         0.9480    0.8148    2.9078 H         1 <0>         0.0000
     45 H22         2.7041   -2.3378    0.6655 H         1 <0>         0.0000
@<TRIPOS>BOND
     1    1    2 ar
     2    1    3 ar
     3    2    5 ar
     4    3    6 ar
     5    4    5 ar
     6    4    6 ar
     7    5    7 1
     8    6   23 1
     9    7   17 am
    10    7   19 2
    11    8   13 1
    12    8   18 am
    13    8   20 2
    14    9   15 1
    15   10   15 1
    16   11   12 1
    17   11   14 1
    18   12   22 1
    19   13   14 1
    20   13   21 1
    21   14   16 1
    22   15   22 1
    23   17   18 1
    24    1   24 1
    25    2   25 1
    26    3   26 1
    27    4   27 1
    28    9   28 1
    29    9   29 1
    30    9   30 1
    31   10   31 1
    32   10   32 1
    33   10   33 1
    34   11   34 1
    35   11   35 1
    36   12   36 1
    37   12   37 1
    38   13   38 1
    39   14   39 1
    40   15   40 1
    41   16   41 1
    42   16   42 1
    43   17   43 1
    44   18   44 1
    45   21   45 1
@<TRIPOS>MOLECULE
LIGAND
   45    45     0     0     0
SMALL
NO_CHARGES

@<TRIPOS>ATOM
      1 C1         -2.1326   -2.6043    7.7561 C.ar      1 <0>         0.0000
      2 C2         -1.7551   -2.3302    6.4416 C.ar      1 <0>         0.0000
      3 C3         -1.6491   -1.8151    8.7997 C.ar      1 <0>         0.0000
      4 C4         -0.4104   -0.4776    7.2142 C.ar      1 <0>         0.0000
      5 C5         -0.8940   -1.2668    6.1707 C.ar      1 <0>         0.0000
      6 C6         -0.7879   -0.7518    8.5287 C.ar      1 <0>         0.0000
      7 C7         -0.4919   -0.9759    4.7701 C.2       1 <0>         0.0000
      8 C8          1.9325   -1.0133    2.6768 C.2       1 <0>         0.0000
      9 C9          5.1418    3.1300   -1.9709 C.3       1 <0>         0.0000
     10 C10         3.7665    4.3432   -3.6963 C.3       1 <0>         0.0000
     11 C11         1.5761    0.1765   -1.0474 C.3       1 <0>         0.0000
     12 C12         2.3784    1.4800   -1.1273 C.3       1 <0>         0.0000
     13 C13         2.3649   -0.5352    1.2935 C.3       1 <0>         0.0000
     14 C14         1.1534   -0.2750    0.3710 C.3       1 <0>         0.0000
     15 C15         3.7349    3.4566   -2.4572 C.3       1 <0>         0.0000
     16 N1          0.3597   -1.5080    0.3138 N.3       1 <0>         0.0000
     17 N2          0.7320   -0.3536    4.6161 N.am      1 <0>         0.0000
     18 N3          1.1743   -0.0714    3.3469 N.am      1 <0>         0.0000
     19 O1         -1.2351   -1.3059    3.8493 O.2       1 <0>         0.0000
     20 O2          2.2555   -2.1109    3.1269 O.2       1 <0>         0.0000
     21 O3          3.2186   -1.5159    0.7230 O.3       1 <0>         0.0000
     22 S1          2.8465    1.9264   -2.8249 S.3       1 <0>         0.0000
     23 Cl1        -0.1920    0.2220    9.8169 Cl        1 <0>         0.0000
     24 H1         -2.8034   -3.4321    7.9668 H         1 <0>         0.0000
     25 H2         -2.1385   -2.9523    5.6369 H         1 <0>         0.0000
     26 H3         -1.9519   -2.0407    9.8189 H         1 <0>         0.0000
     27 H4          0.2608    0.3516    6.9998 H         1 <0>         0.0000
     28 H5          5.7052    2.6127   -2.7555 H         1 <0>         0.0000
     29 H6          5.6972    4.0398   -1.7170 H         1 <0>         0.0000
     30 H7          5.1290    2.4774   -1.0905 H         1 <0>         0.0000
     31 H8          4.3088    3.8446   -4.5075 H         1 <0>         0.0000
     32 H9          4.2791    5.2906   -3.4959 H         1 <0>         0.0000
     33 H10         2.7588    4.5681   -4.0639 H         1 <0>         0.0000
     34 H11         2.1843   -0.6108   -1.5125 H         1 <0>         0.0000
     35 H12         0.6847    0.2765   -1.6798 H         1 <0>         0.0000
     36 H13         3.3029    1.3655   -0.5514 H         1 <0>         0.0000
     37 H14         1.8267    2.3139   -0.6838 H         1 <0>         0.0000
     38 H15         2.9484    0.3859    1.4229 H         1 <0>         0.0000
     39 H16         0.5249    0.4957    0.8291 H         1 <0>         0.0000
     40 H17         3.1895    3.9723   -1.6597 H         1 <0>         0.0000
     41 H18        -0.4842   -1.3249   -0.2178 H         1 <0>         0.0000
     42 H19         0.0690   -1.7492    1.2550 H         1 <0>         0.0000
     43 H20         1.2931   -0.1098    5.4249 H         1 <0>         0.0000
     44 H21         0.9480    0.8148    2.9078 H         1 <0>         0.0000
     45 H22         2.7041   -2.3378    0.6655 H         1 <0>         0.0000
@<TRIPOS>BOND
     1    1    2 ar
     2    1    3 ar
     3    2    5 ar
     4    3    6 ar
     5    4    5 ar
     6    4    6 ar
     7    5    7 1
     8    6   23 1
     9    7   17 am
    10    7   19 2
    11    8   13 1
    12    8   18 am
    13    8   20 2
    14    9   15 1
    15   10   15 1
    16   11   12 1
    17   11   14 1
    18   12   22 1
    19   13   14 1
    20   13   21 1
    21   14   16 1
    22   15   22 1
    23   17   18 1
    24    1   24 1
    25    2   25 1
    26    3   26 1
    27    4   27 1
    28    9   28 1
    29    9   29 1
    30    9   30 1
    31   10   31 1
    32   10   32 1
    33   10   33 1
    34   11   34 1
    35   11   35 1
    36   12   36 1
    37   12   37 1
    38   13   38 1
    39   14   39 1
    40   15   40 1
    41   16   41 1
    42   16   42 1
    43   17   43 1
    44   18   44 1
    45   21   45 1
@<TRIPOS>MOLECULE
LIGAND
   45    45     0     0     0
SMALL
NO_CHARGES

@<TRIPOS>ATOM
      1 C1          2.6912   -3.0589    9.0302 C.ar      1 <0>         0.0000
      2 C2          3.0390   -2.7910    7.7063 C.ar      1 <0>         0.0000
      3 C3          1.9142   -2.1475    9.7453 C.ar      1 <0>         0.0000
      4 C4          1.8330   -0.7002    7.8125 C.ar      1 <0>         0.0000
      5 C5          2.6100   -1.6117    7.0974 C.ar      1 <0>         0.0000
      6 C6          1.4852   -0.9681    9.1364 C.ar      1 <0>         0.0000
      7 C7          2.9815   -1.3268    5.6872 C.2       1 <0>         0.0000
      8 C8          1.9325   -1.0133    2.6768 C.2       1 <0>         0.0000
      9 C9         -4.7601    2.7149    0.5929 C.3       1 <0>         0.0000
     10 C10        -3.4472    2.6704   -1.5553 C.3       1 <0>         0.0000
     11 C11         0.2195    0.8307    0.9188 C.3       1 <0>         0.0000
     12 C12        -1.0001    1.1700    0.0549 C.3       1 <0>         0.0000
     13 C13         2.3649   -0.5352    1.2935 C.3       1 <0>         0.0000
     14 C14         1.1534   -0.2750    0.3710 C.3       1 <0>         0.0000
     15 C15        -3.5656    2.1167   -0.1405 C.3       1 <0>         0.0000
     16 N1          1.6681    0.0834   -0.9557 N.3       1 <0>         0.0000
     17 N2          2.1084   -0.5131    4.9911 N.am      1 <0>         0.0000
     18 N3          2.3999   -0.1941    3.6876 N.am      1 <0>         0.0000
     19 O1          4.0191   -1.8000    5.2304 O.2       1 <0>         0.0000
     20 O2          1.2610   -2.0296    2.8442 O.2       1 <0>         0.0000
     21 O3          3.2186   -1.5159    0.7230 O.3       1 <0>         0.0000
     22 S1         -2.0492    2.4644    0.7791 S.3       1 <0>         0.0000
     23 Cl1         0.5261    0.1558   10.0192 Cl        1 <0>         0.0000
     24 H1          3.0251   -3.9773    9.5040 H         1 <0>         0.0000
     25 H2          3.6450   -3.5089    7.1594 H         1 <0>         0.0000
     26 H3          1.6510   -2.3697   10.7762 H         1 <0>         0.0000
     27 H4          1.4993    0.2187    7.3347 H         1 <0>         0.0000
     28 H5         -4.6637    3.8047    0.6519 H         1 <0>         0.0000
     29 H6         -5.6983    2.4987    0.0696 H         1 <0>         0.0000
     30 H7         -4.8423    2.3359    1.6179 H         1 <0>         0.0000
     31 H8         -3.3306    3.7597   -1.5293 H         1 <0>         0.0000
     32 H9         -4.3446    2.4528   -2.1452 H         1 <0>         0.0000
     33 H10        -2.5797    2.2592   -2.0841 H         1 <0>         0.0000
     34 H11        -0.1531    0.5335    1.9082 H         1 <0>         0.0000
     35 H12         0.7975    1.7493    1.0822 H         1 <0>         0.0000
     36 H13        -1.6176    0.2727   -0.0585 H         1 <0>         0.0000
     37 H14        -0.7009    1.4813   -0.9501 H         1 <0>         0.0000
     38 H15         2.9484    0.3859    1.4229 H         1 <0>         0.0000
     39 H16         0.5915   -1.2082    0.2610 H         1 <0>         0.0000
     40 H17        -3.6811    1.0287   -0.1886 H         1 <0>         0.0000
     41 H18         0.8845    0.1717   -1.5934 H         1 <0>         0.0000
     42 H19         2.2416   -0.6802   -1.2969 H         1 <0>         0.0000
     43 H20         1.2682   -0.1582    5.4344 H         1 <0>         0.0000
     44 H21         2.9499    0.6302    3.4697 H         1 <0>         0.0000
     45 H22         2.7041   -2.3378    0.6655 H         1 <0>         0.0000
@<TRIPOS>BOND
     1    1    2 ar
     2    1    3 ar
     3    2    5 ar
     4    3    6 ar
     5    4    5 ar
     6    4    6 ar
     7    5    7 1
     8    6   23 1
     9    7   17 am
    10    7   19 2
    11    8   13 1
    12    8   18 am
    13    8   20 2
    14    9   15 1
    15   10   15 1
    16   11   12 1
    17   11   14 1
    18   12   22 1
    19   13   14 1
    20   13   21 1
    21   14   16 1
    22   15   22 1
    23   17   18 1
    24    1   24 1
    25    2   25 1
    26    3   26 1
    27    4   27 1
    28    9   28 1
    29    9   29 1
    30    9   30 1
    31   10   31 1
    32   10   32 1
    33   10   33 1
    34   11   34 1
    35   11   35 1
    36   12   36 1
    37   12   37 1
    38   13   38 1
    39   14   39 1
    40   15   40 1
    41   16   41 1
    42   16   42 1
    43   17   43 1
    44   18   44 1
    45   21   45 1
@<TRIPOS>MOLECULE
LIGAND
   45    45     0     0     0
SMALL
NO_CHARGES

@<TRIPOS>ATOM
      1 C1          0.7616   -0.9565    8.9701 C.ar      1 <0>         0.0000
      2 C2          1.1113   -0.5972    7.6686 C.ar      1 <0>         0.0000
      3 C3         -0.3809   -0.4156    9.5599 C.ar      1 <0>         0.0000
      4 C4         -0.8238    0.8441    7.5465 C.ar      1 <0>         0.0000
      5 C5          0.3186    0.3032    6.9567 C.ar      1 <0>         0.0000
      6 C6         -1.1736    0.4847    8.8481 C.ar      1 <0>         0.0000
      7 C7          0.6923    0.6859    5.5704 C.2       1 <0>         0.0000
      8 C8          1.9325   -1.0133    2.6768 C.2       1 <0>         0.0000
      9 C9         -2.2116    3.9082   -0.1431 C.3       1 <0>         0.0000
     10 C10        -2.4834    4.0365    2.3569 C.3       1 <0>         0.0000
     11 C11        -0.0095    0.4324    1.1072 C.3       1 <0>         0.0000
     12 C12        -1.2475    0.7494    0.2611 C.3       1 <0>         0.0000
     13 C13         2.3649   -0.5352    1.2935 C.3       1 <0>         0.0000
     14 C14         1.1534   -0.2750    0.3710 C.3       1 <0>         0.0000
     15 C15        -1.9019    3.2433    1.1928 C.3       1 <0>         0.0000
     16 N1          1.6190    0.5274   -0.7660 N.3       1 <0>         0.0000
     17 N2          1.4238   -0.2520    4.8674 N.am      1 <0>         0.0000
     18 N3          1.7877    0.0290    3.5734 N.am      1 <0>         0.0000
     19 O1          0.3313    1.7736    5.1279 O.2       1 <0>         0.0000
     20 O2          1.7602   -2.2018    2.9407 O.2       1 <0>         0.0000
     21 O3          3.2186   -1.5159    0.7230 O.3       1 <0>         0.0000
     22 S1         -2.5681    1.5634    1.2065 S.3       1 <0>         0.0000
     23 Cl1        -2.5835    1.1514    9.5763 Cl        1 <0>         0.0000
     24 H1          1.3787   -1.6577    9.5240 H         1 <0>         0.0000
     25 H2          2.0040   -1.0253    7.2198 H         1 <0>         0.0000
     26 H3         -0.6409   -0.7049   10.5749 H         1 <0>         0.0000
     27 H4         -1.4407    1.5458    6.9886 H         1 <0>         0.0000
     28 H5         -3.2949    3.9917   -0.2846 H         1 <0>         0.0000
     29 H6         -1.7979    4.9218   -0.1894 H         1 <0>         0.0000
     30 H7         -1.8127    3.3346   -0.9875 H         1 <0>         0.0000
     31 H8         -3.5710    4.1220    2.2538 H         1 <0>         0.0000
     32 H9         -2.0781    5.0540    2.3882 H         1 <0>         0.0000
     33 H10        -2.2811    3.5556    3.3208 H         1 <0>         0.0000
     34 H11        -0.3395   -0.1920    1.9483 H         1 <0>         0.0000
     35 H12         0.3553    1.3657    1.5547 H         1 <0>         0.0000
     36 H13        -1.6569   -0.1854   -0.1361 H         1 <0>         0.0000
     37 H14        -0.9918    1.3768   -0.5976 H         1 <0>         0.0000
     38 H15         2.9484    0.3859    1.4229 H         1 <0>         0.0000
     39 H16         0.8058   -1.2336   -0.0276 H         1 <0>         0.0000
     40 H17        -0.8160    3.1696    1.3146 H         1 <0>         0.0000
     41 H18         0.8536    0.6316   -1.4231 H         1 <0>         0.0000
     42 H19         2.3513    0.0146   -1.2450 H         1 <0>         0.0000
     43 H20         1.6871   -1.1312    5.2989 H         1 <0>         0.0000
     44 H21         1.9478    0.9869    3.2798 H         1 <0>         0.0000
     45 H22         2.7041   -2.3378    0.6655 H         1 <0>         0.0000
@<TRIPOS>BOND
     1    1    2 ar
     2    1    3 ar
     3    2    5 ar
     4    3    6 ar
     5    4    5 ar
     6    4    6 ar
     7    5    7 1
     8    6   23 1
     9    7   17 am
    10    7   19 2
    11    8   13 1
    12    8   18 am
    13    8   20 2
    14    9   15 1
    15   10   15 1
    16   11   12 1
    17   11   14 1
    18   12   22 1
    19   13   14 1
    20   13   21 1
    21   14   16 1
    22   15   22 1
    23   17   18 1
    24    1   24 1
    25    2   25 1
    26    3   26 1
    27    4   27 1
    28    9   28 1
    29    9   29 1
    30    9   30 1
    31   10   31 1
    32   10   32 1
    33   10   33 1
    34   11   34 1
    35   11   35 1
    36   12   36 1
    37   12   37 1
    38   13   38 1
    39   14   39 1
    40   15   40 1
    41   16   41 1
    42   16   42 1
    43   17   43 1
    44   18   44 1
    45   21   45 1
@<TRIPOS>MOLECULE
LIGAND
   45    45     0     0     0
SMALL
NO_CHARGES

@<TRIPOS>ATOM
      1 C1          1.7949   -2.7138    8.7492 C.ar      1 <0>         0.0000
      2 C2          2.1171   -2.3438    7.4435 C.ar      1 <0>         0.0000
      3 C3          2.6888   -2.4547    9.7883 C.ar      1 <0>         0.0000
      4 C4          4.2272   -1.4558    8.2158 C.ar      1 <0>         0.0000
      5 C5          3.3333   -1.7148    7.1768 C.ar      1 <0>         0.0000
      6 C6          3.9049   -1.8257    9.5216 C.ar      1 <0>         0.0000
      7 C7          3.6760   -1.3216    5.7855 C.2       1 <0>         0.0000
      8 C8          1.9325   -1.0133    2.6768 C.2       1 <0>         0.0000
      9 C9         -4.0383    1.9882   -1.0273 C.3       1 <0>         0.0000
     10 C10        -3.4456    4.3900   -0.5583 C.3       1 <0>         0.0000
     11 C11         0.2195    0.8307    0.9188 C.3       1 <0>         0.0000
     12 C12        -1.0001    1.1700    0.0549 C.3       1 <0>         0.0000
     13 C13         2.3649   -0.5352    1.2935 C.3       1 <0>         0.0000
     14 C14         1.1534   -0.2750    0.3710 C.3       1 <0>         0.0000
     15 C15        -2.9141    2.9715   -0.7245 C.3       1 <0>         0.0000
     16 N1          1.6681    0.0834   -0.9557 N.3       1 <0>         0.0000
     17 N2          2.6023   -1.0670    4.9540 N.am      1 <0>         0.0000
     18 N3          2.8469   -0.6810    3.6590 N.am      1 <0>         0.0000
     19 O1          4.8567   -1.2304    5.4589 O.2       1 <0>         0.0000
     20 O2          0.8915   -1.6405    2.8632 O.2       1 <0>         0.0000
     21 O3          3.2186   -1.5159    0.7230 O.3       1 <0>         0.0000
     22 S1         -2.0492    2.4644    0.7791 S.3       1 <0>         0.0000
     23 Cl1         5.0072   -1.5059   10.8043 Cl        1 <0>         0.0000
     24 H1          0.8479   -3.2031    8.9567 H         1 <0>         0.0000
     25 H2          1.4125   -2.5511    6.6423 H         1 <0>         0.0000
     26 H3          2.4241   -2.7487   10.8007 H         1 <0>         0.0000
     27 H4          5.1749   -0.9645    8.0049 H         1 <0>         0.0000
     28 H5         -4.7755    1.9915   -0.2167 H         1 <0>         0.0000
     29 H6         -4.5662    2.2576   -1.9489 H         1 <0>         0.0000
     30 H7         -3.6673    0.9620   -1.1303 H         1 <0>         0.0000
     31 H8         -4.1737    4.4304    0.2595 H         1 <0>         0.0000
     32 H9         -3.9550    4.7339   -1.4654 H         1 <0>         0.0000
     33 H10        -2.6458    5.1012   -0.3221 H         1 <0>         0.0000
     34 H11        -0.1531    0.5335    1.9082 H         1 <0>         0.0000
     35 H12         0.7975    1.7493    1.0822 H         1 <0>         0.0000
     36 H13        -1.6176    0.2727   -0.0585 H         1 <0>         0.0000
     37 H14        -0.7009    1.4813   -0.9501 H         1 <0>         0.0000
     38 H15         2.9484    0.3859    1.4229 H         1 <0>         0.0000
     39 H16         0.5915   -1.2082    0.2610 H         1 <0>         0.0000
     40 H17        -2.1892    2.9529   -1.5453 H         1 <0>         0.0000
     41 H18         0.8845    0.1717   -1.5934 H         1 <0>         0.0000
     42 H19         2.2416   -0.6802   -1.2969 H         1 <0>         0.0000
     43 H20         1.6516   -1.1634    5.2936 H         1 <0>         0.0000
     44 H21         3.6858   -0.1599    3.4266 H         1 <0>         0.0000
     45 H22         2.7041   -2.3378    0.6655 H         1 <0>         0.0000
@<TRIPOS>BOND
     1    1    2 ar
     2    1    3 ar
     3    2    5 ar
     4    3    6 ar
     5    4    5 ar
     6    4    6 ar
     7    5    7 1
     8    6   23 1
     9    7   17 am
    10    7   19 2
    11    8   13 1
    12    8   18 am
    13    8   20 2
    14    9   15 1
    15   10   15 1
    16   11   12 1
    17   11   14 1
    18   12   22 1
    19   13   14 1
    20   13   21 1
    21   14   16 1
    22   15   22 1
    23   17   18 1
    24    1   24 1
    25    2   25 1
    26    3   26 1
    27    4   27 1
    28    9   28 1
    29    9   29 1
    30    9   30 1
    31   10   31 1
    32   10   32 1
    33   10   33 1
    34   11   34 1
    35   11   35 1
    36   12   36 1
    37   12   37 1
    38   13   38 1
    39   14   39 1
    40   15   40 1
    41   16   41 1
    42   16   42 1
    43   17   43 1
    44   18   44 1
    45   21   45 1
@<TRIPOS>MOLECULE
LIGAND
   45    45     0     0     0
SMALL
NO_CHARGES

@<TRIPOS>ATOM
      1 C1         -2.6241   -1.6244    7.8186 C.ar      1 <0>         0.0000
      2 C2         -2.2458   -1.3508    6.5042 C.ar      1 <0>         0.0000
      3 C3         -1.6506   -1.8141    8.7994 C.ar      1 <0>         0.0000
      4 C4          0.0795   -1.4566    7.1515 C.ar      1 <0>         0.0000
      5 C5         -0.8940   -1.2668    6.1707 C.ar      1 <0>         0.0000
      6 C6         -0.2989   -1.7302    8.4659 C.ar      1 <0>         0.0000
      7 C7         -0.4919   -0.9759    4.7701 C.2       1 <0>         0.0000
      8 C8          1.9325   -1.0133    2.6768 C.2       1 <0>         0.0000
      9 C9         -1.2188    2.4860   -4.0715 C.3       1 <0>         0.0000
     10 C10        -0.4191    1.0621   -5.9881 C.3       1 <0>         0.0000
     11 C11         1.5761    0.1765   -1.0474 C.3       1 <0>         0.0000
     12 C12         0.4360    0.4372   -2.0380 C.3       1 <0>         0.0000
     13 C13         2.3649   -0.5352    1.2935 C.3       1 <0>         0.0000
     14 C14         1.1534   -0.2750    0.3710 C.3       1 <0>         0.0000
     15 C15        -0.5876    1.1594   -4.4766 C.3       1 <0>         0.0000
     16 N1          0.3597   -1.5080    0.3138 N.3       1 <0>         0.0000
     17 N2          0.7320   -0.3536    4.6161 N.am      1 <0>         0.0000
     18 N3          1.1743   -0.0714    3.3469 N.am      1 <0>         0.0000
     19 O1         -1.2351   -1.3059    3.8493 O.2       1 <0>         0.0000
     20 O2          2.2555   -2.1109    3.1269 O.2       1 <0>         0.0000
     21 O3          3.2186   -1.5159    0.7230 O.3       1 <0>         0.0000
     22 S1          1.0200    0.9781   -3.6711 S.3       1 <0>         0.0000
     23 Cl1         0.9018   -1.9639    9.6768 Cl        1 <0>         0.0000
     24 H1         -3.6766   -1.6894    8.0781 H         1 <0>         0.0000
     25 H2         -3.0136   -1.2050    5.7487 H         1 <0>         0.0000
     26 H3         -1.9605   -2.0267    9.8194 H         1 <0>         0.0000
     27 H4          1.1333   -1.3900    6.8885 H         1 <0>         0.0000
     28 H5         -0.5957    3.3223   -4.4074 H         1 <0>         0.0000
     29 H6         -2.2073    2.6127   -4.5270 H         1 <0>         0.0000
     30 H7         -1.3270    2.5723   -2.9843 H         1 <0>         0.0000
     31 H8          0.2163    1.8766   -6.3535 H         1 <0>         0.0000
     32 H9         -1.3827    1.1446   -6.5030 H         1 <0>         0.0000
     33 H10         0.0512    0.1184   -6.2872 H         1 <0>         0.0000
     34 H11         2.1631    1.1018   -0.9736 H         1 <0>         0.0000
     35 H12         2.2520   -0.5707   -1.4824 H         1 <0>         0.0000
     36 H13        -0.2073    1.2295   -1.6408 H         1 <0>         0.0000
     37 H14        -0.1907   -0.4501   -2.1649 H         1 <0>         0.0000
     38 H15         2.9484    0.3859    1.4229 H         1 <0>         0.0000
     39 H16         0.5249    0.4957    0.8291 H         1 <0>         0.0000
     40 H17        -1.2247    0.3378   -4.1321 H         1 <0>         0.0000
     41 H18        -0.4842   -1.3249   -0.2178 H         1 <0>         0.0000
     42 H19         0.0690   -1.7492    1.2550 H         1 <0>         0.0000
     43 H20         1.2931   -0.1098    5.4249 H         1 <0>         0.0000
     44 H21         0.9480    0.8148    2.9078 H         1 <0>         0.0000
     45 H22         2.7041   -2.3378    0.6655 H         1 <0>         0.0000
@<TRIPOS>BOND
     1    1    2 ar
     2    1    3 ar
     3    2    5 ar
     4    3    6 ar
     5    4    5 ar
     6    4    6 ar
     7    5    7 1
     8    6   23 1
     9    7   17 am
    10    7   19 2
    11    8   13 1
    12    8   18 am
    13    8   20 2
    14    9   15 1
    15   10   15 1
    16   11   12 1
    17   11   14 1
    18   12   22 1
    19   13   14 1
    20   13   21 1
    21   14   16 1
    22   15   22 1
    23   17   18 1
    24    1   24 1
    25    2   25 1
    26    3   26 1
    27    4   27 1
    28    9   28 1
    29    9   29 1
    30    9   30 1
    31   10   31 1
    32   10   32 1
    33   10   33 1
    34   11   34 1
    35   11   35 1
    36   12   36 1
    37   12   37 1
    38   13   38 1
    39   14   39 1
    40   15   40 1
    41   16   41 1
    42   16   42 1
    43   17   43 1
    44   18   44 1
    45   21   45 1
@<TRIPOS>MOLECULE
LIGAND
   45    45     0     0     0
SMALL
NO_CHARGES

@<TRIPOS>ATOM
      1 C1         -2.8134   -3.6397    6.9542 C.ar      1 <0>         0.0000
      2 C2         -2.3780   -3.0405    5.7723 C.ar      1 <0>         0.0000
      3 C3         -1.8836   -4.1212    7.8758 C.ar      1 <0>         0.0000
      4 C4         -0.0829   -3.4042    6.4334 C.ar      1 <0>         0.0000
      5 C5         -1.0128   -2.9227    5.5119 C.ar      1 <0>         0.0000
      6 C6         -0.5183   -4.0035    7.6154 C.ar      1 <0>         0.0000
      7 C7         -0.5498   -2.2848    4.2523 C.2       1 <0>         0.0000
      8 C8          1.9325   -1.0133    2.6768 C.2       1 <0>         0.0000
      9 C9         -4.2967    1.3927   -0.3375 C.3       1 <0>         0.0000
     10 C10        -4.0071    3.8901   -0.4781 C.3       1 <0>         0.0000
     11 C11         0.2195    0.8307    0.9188 C.3       1 <0>         0.0000
     12 C12        -1.0001    1.1700    0.0549 C.3       1 <0>         0.0000
     13 C13         2.3649   -0.5352    1.2935 C.3       1 <0>         0.0000
     14 C14         1.1534   -0.2750    0.3710 C.3       1 <0>         0.0000
     15 C15        -3.3066    2.5373   -0.5169 C.3       1 <0>         0.0000
     16 N1          1.6681    0.0834   -0.9557 N.3       1 <0>         0.0000
     17 N2          0.6851   -2.6985    3.7909 N.am      1 <0>         0.0000
     18 N3          1.1665   -2.1628    2.6216 N.am      1 <0>         0.0000
     19 O1         -1.2703   -1.4609    3.6944 O.2       1 <0>         0.0000
     20 O2          2.2299   -0.4108    3.7066 O.2       1 <0>         0.0000
     21 O3          3.2186   -1.5159    0.7230 O.3       1 <0>         0.0000
     22 S1         -2.0492    2.4644    0.7791 S.3       1 <0>         0.0000
     23 Cl1         0.6285   -4.5974    8.7532 Cl        1 <0>         0.0000
     24 H1         -3.8765   -3.7310    7.1569 H         1 <0>         0.0000
     25 H2         -3.1122   -2.6692    5.0619 H         1 <0>         0.0000
     26 H3         -2.2377   -4.5858    8.7924 H         1 <0>         0.0000
     27 H4          0.9816   -3.3106    6.2279 H         1 <0>         0.0000
     28 H5         -4.8186    1.4878    0.6213 H         1 <0>         0.0000
     29 H6         -5.0586    1.3975   -1.1249 H         1 <0>         0.0000
     30 H7         -3.7990    0.4164   -0.3457 H         1 <0>         0.0000
     31 H8         -4.5245    4.0235    0.4785 H         1 <0>         0.0000
     32 H9         -4.7599    3.9723   -1.2700 H         1 <0>         0.0000
     33 H10        -3.2998    4.7201   -0.5881 H         1 <0>         0.0000
     34 H11        -0.1531    0.5335    1.9082 H         1 <0>         0.0000
     35 H12         0.7975    1.7493    1.0822 H         1 <0>         0.0000
     36 H13        -1.6176    0.2727   -0.0585 H         1 <0>         0.0000
     37 H14        -0.7009    1.4813   -0.9501 H         1 <0>         0.0000
     38 H15         2.9484    0.3859    1.4229 H         1 <0>         0.0000
     39 H16         0.5915   -1.2082    0.2610 H         1 <0>         0.0000
     40 H17        -2.7965    2.4239   -1.4795 H         1 <0>         0.0000
     41 H18         0.8845    0.1717   -1.5934 H         1 <0>         0.0000
     42 H19         2.2416   -0.6802   -1.2969 H         1 <0>         0.0000
     43 H20         1.2257   -3.3847    4.3060 H         1 <0>         0.0000
     44 H21         0.9630   -2.6038    1.7309 H         1 <0>         0.0000
     45 H22         2.7041   -2.3378    0.6655 H         1 <0>         0.0000
@<TRIPOS>BOND
     1    1    2 ar
     2    1    3 ar
     3    2    5 ar
     4    3    6 ar
     5    4    5 ar
     6    4    6 ar
     7    5    7 1
     8    6   23 1
     9    7   17 am
    10    7   19 2
    11    8   13 1
    12    8   18 am
    13    8   20 2
    14    9   15 1
    15   10   15 1
    16   11   12 1
    17   11   14 1
    18   12   22 1
    19   13   14 1
    20   13   21 1
    21   14   16 1
    22   15   22 1
    23   17   18 1
    24    1   24 1
    25    2   25 1
    26    3   26 1
    27    4   27 1
    28    9   28 1
    29    9   29 1
    30    9   30 1
    31   10   31 1
    32   10   32 1
    33   10   33 1
    34   11   34 1
    35   11   35 1
    36   12   36 1
    37   12   37 1
    38   13   38 1
    39   14   39 1
    40   15   40 1
    41   16   41 1
    42   16   42 1
    43   17   43 1
    44   18   44 1
    45   21   45 1
@<TRIPOS>MOLECULE
LIGAND
   45    45     0     0     0
SMALL
NO_CHARGES

@<TRIPOS>ATOM
      1 C1         -0.7874   -0.7484    8.5279 C.ar      1 <0>         0.0000
      2 C2         -0.4100   -0.4763    7.2130 C.ar      1 <0>         0.0000
      3 C3         -1.6489   -1.8111    8.8006 C.ar      1 <0>         0.0000
      4 C4         -1.7555   -2.3295    6.4433 C.ar      1 <0>         0.0000
      5 C5         -0.8940   -1.2668    6.1707 C.ar      1 <0>         0.0000
      6 C6         -2.1330   -2.6016    7.7583 C.ar      1 <0>         0.0000
      7 C7         -0.4919   -0.9759    4.7701 C.2       1 <0>         0.0000
      8 C8          1.9325   -1.0133    2.6768 C.2       1 <0>         0.0000
      9 C9         -1.2188    2.4860   -4.0715 C.3       1 <0>         0.0000
     10 C10        -0.4191    1.0621   -5.9881 C.3       1 <0>         0.0000
     11 C11         1.5761    0.1765   -1.0474 C.3       1 <0>         0.0000
     12 C12         0.4360    0.4372   -2.0380 C.3       1 <0>         0.0000
     13 C13         2.3649   -0.5352    1.2935 C.3       1 <0>         0.0000
     14 C14         1.1534   -0.2750    0.3710 C.3       1 <0>         0.0000
     15 C15        -0.5876    1.1594   -4.4766 C.3       1 <0>         0.0000
     16 N1          0.3597   -1.5080    0.3138 N.3       1 <0>         0.0000
     17 N2          0.7320   -0.3536    4.6161 N.am      1 <0>         0.0000
     18 N3          1.1743   -0.0714    3.3469 N.am      1 <0>         0.0000
     19 O1         -1.2351   -1.3059    3.8493 O.2       1 <0>         0.0000
     20 O2          2.2555   -2.1109    3.1269 O.2       1 <0>         0.0000
     21 O3          3.2186   -1.5159    0.7230 O.3       1 <0>         0.0000
     22 S1          1.0200    0.9781   -3.6711 S.3       1 <0>         0.0000
     23 Cl1        -3.1956   -3.9130    8.0955 Cl        1 <0>         0.0000
     24 H1         -0.4102   -0.1330    9.3393 H         1 <0>         0.0000
     25 H2          0.2618    0.3545    7.0131 H         1 <0>         0.0000
     26 H3         -1.9343   -2.0111    9.8301 H         1 <0>         0.0000
     27 H4         -2.1312   -2.9448    5.6282 H         1 <0>         0.0000
     28 H5         -0.5957    3.3223   -4.4074 H         1 <0>         0.0000
     29 H6         -2.2073    2.6127   -4.5270 H         1 <0>         0.0000
     30 H7         -1.3270    2.5723   -2.9843 H         1 <0>         0.0000
     31 H8          0.2163    1.8766   -6.3535 H         1 <0>         0.0000
     32 H9         -1.3827    1.1446   -6.5030 H         1 <0>         0.0000
     33 H10         0.0512    0.1184   -6.2872 H         1 <0>         0.0000
     34 H11         2.1631    1.1018   -0.9736 H         1 <0>         0.0000
     35 H12         2.2520   -0.5707   -1.4824 H         1 <0>         0.0000
     36 H13        -0.2073    1.2295   -1.6408 H         1 <0>         0.0000
     37 H14        -0.1907   -0.4501   -2.1649 H         1 <0>         0.0000
     38 H15         2.9484    0.3859    1.4229 H         1 <0>         0.0000
     39 H16         0.5249    0.4957    0.8291 H         1 <0>         0.0000
     40 H17        -1.2247    0.3378   -4.1321 H         1 <0>         0.0000
     41 H18        -0.4842   -1.3249   -0.2178 H         1 <0>         0.0000
     42 H19         0.0690   -1.7492    1.2550 H         1 <0>         0.0000
     43 H20         1.2931   -0.1098    5.4249 H         1 <0>         0.0000
     44 H21         0.9480    0.8148    2.9078 H         1 <0>         0.0000
     45 H22         2.7041   -2.3378    0.6655 H         1 <0>         0.0000
@<TRIPOS>BOND
     1    1    2 ar
     2    1    3 ar
     3    2    5 ar
     4    3    6 ar
     5    4    5 ar
     6    4    6 ar
     7    5    7 1
     8    6   23 1
     9    7   17 am
    10    7   19 2
    11    8   13 1
    12    8   18 am
    13    8   20 2
    14    9   15 1
    15   10   15 1
    16   11   12 1
    17   11   14 1
    18   12   22 1
    19   13   14 1
    20   13   21 1
    21   14   16 1
    22   15   22 1
    23   17   18 1
    24    1   24 1
    25    2   25 1
    26    3   26 1
    27    4   27 1
    28    9   28 1
    29    9   29 1
    30    9   30 1
    31   10   31 1
    32   10   32 1
    33   10   33 1
    34   11   34 1
    35   11   35 1
    36   12   36 1
    37   12   37 1
    38   13   38 1
    39   14   39 1
    40   15   40 1
    41   16   41 1
    42   16   42 1
    43   17   43 1
    44   18   44 1
    45   21   45 1
@<TRIPOS>MOLECULE
LIGAND
   45    45     0     0     0
SMALL
NO_CHARGES

@<TRIPOS>ATOM
      1 C1          1.8101   -1.6582    9.0513 C.ar      1 <0>         0.0000
      2 C2          2.1329   -1.2890    7.7455 C.ar      1 <0>         0.0000
      3 C3          2.6878   -2.4531    9.7885 C.ar      1 <0>         0.0000
      4 C4          4.2110   -2.5098    7.9140 C.ar      1 <0>         0.0000
      5 C5          3.3333   -1.7148    7.1768 C.ar      1 <0>         0.0000
      6 C6          3.8882   -2.8789    9.2199 C.ar      1 <0>         0.0000
      7 C7          3.6760   -1.3216    5.7855 C.2       1 <0>         0.0000
      8 C8          1.9325   -1.0133    2.6768 C.2       1 <0>         0.0000
      9 C9         -4.0383    1.9882   -1.0273 C.3       1 <0>         0.0000
     10 C10        -3.4456    4.3900   -0.5583 C.3       1 <0>         0.0000
     11 C11         0.2195    0.8307    0.9188 C.3       1 <0>         0.0000
     12 C12        -1.0001    1.1700    0.0549 C.3       1 <0>         0.0000
     13 C13         2.3649   -0.5352    1.2935 C.3       1 <0>         0.0000
     14 C14         1.1534   -0.2750    0.3710 C.3       1 <0>         0.0000
     15 C15        -2.9141    2.9715   -0.7245 C.3       1 <0>         0.0000
     16 N1          1.6681    0.0834   -0.9557 N.3       1 <0>         0.0000
     17 N2          2.6023   -1.0670    4.9540 N.am      1 <0>         0.0000
     18 N3          2.8469   -0.6810    3.6590 N.am      1 <0>         0.0000
     19 O1          4.8567   -1.2304    5.4589 O.2       1 <0>         0.0000
     20 O2          0.8915   -1.6405    2.8632 O.2       1 <0>         0.0000
     21 O3          3.2186   -1.5159    0.7230 O.3       1 <0>         0.0000
     22 S1         -2.0492    2.4644    0.7791 S.3       1 <0>         0.0000
     23 Cl1         4.9710   -3.8593   10.1303 Cl        1 <0>         0.0000
     24 H1          0.8756   -1.3263    9.4940 H         1 <0>         0.0000
     25 H2          1.4408   -0.6694    7.1810 H         1 <0>         0.0000
     26 H3          2.4229   -2.7328   10.8049 H         1 <0>         0.0000
     27 H4          5.1470   -2.8400    7.4680 H         1 <0>         0.0000
     28 H5         -4.7755    1.9915   -0.2167 H         1 <0>         0.0000
     29 H6         -4.5662    2.2576   -1.9489 H         1 <0>         0.0000
     30 H7         -3.6673    0.9620   -1.1303 H         1 <0>         0.0000
     31 H8         -4.1737    4.4304    0.2595 H         1 <0>         0.0000
     32 H9         -3.9550    4.7339   -1.4654 H         1 <0>         0.0000
     33 H10        -2.6458    5.1012   -0.3221 H         1 <0>         0.0000
     34 H11        -0.1531    0.5335    1.9082 H         1 <0>         0.0000
     35 H12         0.7975    1.7493    1.0822 H         1 <0>         0.0000
     36 H13        -1.6176    0.2727   -0.0585 H         1 <0>         0.0000
     37 H14        -0.7009    1.4813   -0.9501 H         1 <0>         0.0000
     38 H15         2.9484    0.3859    1.4229 H         1 <0>         0.0000
     39 H16         0.5915   -1.2082    0.2610 H         1 <0>         0.0000
     40 H17        -2.1892    2.9529   -1.5453 H         1 <0>         0.0000
     41 H18         0.8845    0.1717   -1.5934 H         1 <0>         0.0000
     42 H19         2.2416   -0.6802   -1.2969 H         1 <0>         0.0000
     43 H20         1.6516   -1.1634    5.2936 H         1 <0>         0.0000
     44 H21         3.6858   -0.1599    3.4266 H         1 <0>         0.0000
     45 H22         2.7041   -2.3378    0.6655 H         1 <0>         0.0000
@<TRIPOS>BOND
     1    1    2 ar
     2    1    3 ar
     3    2    5 ar
     4    3    6 ar
     5    4    5 ar
     6    4    6 ar
     7    5    7 1
     8    6   23 1
     9    7   17 am
    10    7   19 2
    11    8   13 1
    12    8   18 am
    13    8   20 2
    14    9   15 1
    15   10   15 1
    16   11   12 1
    17   11   14 1
    18   12   22 1
    19   13   14 1
    20   13   21 1
    21   14   16 1
    22   15   22 1
    23   17   18 1
    24    1   24 1
    25    2   25 1
    26    3   26 1
    27    4   27 1
    28    9   28 1
    29    9   29 1
    30    9   30 1
    31   10   31 1
    32   10   32 1
    33   10   33 1
    34   11   34 1
    35   11   35 1
    36   12   36 1
    37   12   37 1
    38   13   38 1
    39   14   39 1
    40   15   40 1
    41   16   41 1
    42   16   42 1
    43   17   43 1
    44   18   44 1
    45   21   45 1
@<TRIPOS>MOLECULE
LIGAND
   45    45     0     0     0
SMALL
NO_CHARGES

@<TRIPOS>ATOM
      1 C1          2.2466   -2.5526    8.8826 C.ar      1 <0>         0.0000
      2 C2          2.5475   -2.1101    7.5945 C.ar      1 <0>         0.0000
      3 C3          2.1624   -1.6379    9.9324 C.ar      1 <0>         0.0000
      4 C4          2.6802    0.1617    8.4058 C.ar      1 <0>         0.0000
      5 C5          2.7643   -0.7530    7.3561 C.ar      1 <0>         0.0000
      6 C6          2.3792   -0.2808    9.6940 C.ar      1 <0>         0.0000
      7 C7          3.0854   -0.2826    5.9837 C.2       1 <0>         0.0000
      8 C8          1.9325   -1.0133    2.6768 C.2       1 <0>         0.0000
      9 C9         -4.0383    1.9882   -1.0273 C.3       1 <0>         0.0000
     10 C10        -3.4456    4.3900   -0.5583 C.3       1 <0>         0.0000
     11 C11         0.2195    0.8307    0.9188 C.3       1 <0>         0.0000
     12 C12        -1.0001    1.1700    0.0549 C.3       1 <0>         0.0000
     13 C13         2.3649   -0.5352    1.2935 C.3       1 <0>         0.0000
     14 C14         1.1534   -0.2750    0.3710 C.3       1 <0>         0.0000
     15 C15        -2.9141    2.9715   -0.7245 C.3       1 <0>         0.0000
     16 N1          1.6681    0.0834   -0.9557 N.3       1 <0>         0.0000
     17 N2          2.6023   -1.0670    4.9540 N.am      1 <0>         0.0000
     18 N3          2.8469   -0.6810    3.6590 N.am      1 <0>         0.0000
     19 O1          3.7293    0.7533    5.8374 O.2       1 <0>         0.0000
     20 O2          0.8915   -1.6405    2.8632 O.2       1 <0>         0.0000
     21 O3          3.2186   -1.5159    0.7230 O.3       1 <0>         0.0000
     22 S1         -2.0492    2.4644    0.7791 S.3       1 <0>         0.0000
     23 Cl1         2.2747    0.8474   10.9897 Cl        1 <0>         0.0000
     24 H1          2.0776   -3.6092    9.0680 H         1 <0>         0.0000
     25 H2          2.6105   -2.8325    6.7847 H         1 <0>         0.0000
     26 H3          1.9271   -1.9973   10.9308 H         1 <0>         0.0000
     27 H4          2.8492    1.2199    8.2168 H         1 <0>         0.0000
     28 H5         -4.7755    1.9915   -0.2167 H         1 <0>         0.0000
     29 H6         -4.5662    2.2576   -1.9489 H         1 <0>         0.0000
     30 H7         -3.6673    0.9620   -1.1303 H         1 <0>         0.0000
     31 H8         -4.1737    4.4304    0.2595 H         1 <0>         0.0000
     32 H9         -3.9550    4.7339   -1.4654 H         1 <0>         0.0000
     33 H10        -2.6458    5.1012   -0.3221 H         1 <0>         0.0000
     34 H11        -0.1531    0.5335    1.9082 H         1 <0>         0.0000
     35 H12         0.7975    1.7493    1.0822 H         1 <0>         0.0000
     36 H13        -1.6176    0.2727   -0.0585 H         1 <0>         0.0000
     37 H14        -0.7009    1.4813   -0.9501 H         1 <0>         0.0000
     38 H15         2.9484    0.3859    1.4229 H         1 <0>         0.0000
     39 H16         0.5915   -1.2082    0.2610 H         1 <0>         0.0000
     40 H17        -2.1892    2.9529   -1.5453 H         1 <0>         0.0000
     41 H18         0.8845    0.1717   -1.5934 H         1 <0>         0.0000
     42 H19         2.2416   -0.6802   -1.2969 H         1 <0>         0.0000
     43 H20         2.0769   -1.9119    5.1509 H         1 <0>         0.0000
     44 H21         3.6858   -0.1599    3.4266 H         1 <0>         0.0000
     45 H22         2.7041   -2.3378    0.6655 H         1 <0>         0.0000
@<TRIPOS>BOND
     1    1    2 ar
     2    1    3 ar
     3    2    5 ar
     4    3    6 ar
     5    4    5 ar
     6    4    6 ar
     7    5    7 1
     8    6   23 1
     9    7   17 am
    10    7   19 2
    11    8   13 1
    12    8   18 am
    13    8   20 2
    14    9   15 1
    15   10   15 1
    16   11   12 1
    17   11   14 1
    18   12   22 1
    19   13   14 1
    20   13   21 1
    21   14   16 1
    22   15   22 1
    23   17   18 1
    24    1   24 1
    25    2   25 1
    26    3   26 1
    27    4   27 1
    28    9   28 1
    29    9   29 1
    30    9   30 1
    31   10   31 1
    32   10   32 1
    33   10   33 1
    34   11   34 1
    35   11   35 1
    36   12   36 1
    37   12   37 1
    38   13   38 1
    39   14   39 1
    40   15   40 1
    41   16   41 1
    42   16   42 1
    43   17   43 1
    44   18   44 1
    45   21   45 1
@<TRIPOS>MOLECULE
LIGAND
   45    45     0     0     0
SMALL
NO_CHARGES

@<TRIPOS>ATOM
      1 C1         -2.3305   -2.8430    7.5352 C.ar      1 <0>         0.0000
      2 C2         -1.8950   -2.2446    6.3529 C.ar      1 <0>         0.0000
      3 C3         -1.8838   -4.1195    7.8766 C.ar      1 <0>         0.0000
      4 C4         -0.5660   -4.1993    5.8532 C.ar      1 <0>         0.0000
      5 C5         -1.0128   -2.9227    5.5119 C.ar      1 <0>         0.0000
      6 C6         -1.0015   -4.7977    7.0355 C.ar      1 <0>         0.0000
      7 C7         -0.5498   -2.2848    4.2523 C.2       1 <0>         0.0000
      8 C8          1.9325   -1.0133    2.6768 C.2       1 <0>         0.0000
      9 C9         -4.2967    1.3927   -0.3375 C.3       1 <0>         0.0000
     10 C10        -4.0071    3.8901   -0.4781 C.3       1 <0>         0.0000
     11 C11         0.2195    0.8307    0.9188 C.3       1 <0>         0.0000
     12 C12        -1.0001    1.1700    0.0549 C.3       1 <0>         0.0000
     13 C13         2.3649   -0.5352    1.2935 C.3       1 <0>         0.0000
     14 C14         1.1534   -0.2750    0.3710 C.3       1 <0>         0.0000
     15 C15        -3.3066    2.5373   -0.5169 C.3       1 <0>         0.0000
     16 N1          1.6681    0.0834   -0.9557 N.3       1 <0>         0.0000
     17 N2          0.6851   -2.6985    3.7909 N.am      1 <0>         0.0000
     18 N3          1.1665   -2.1628    2.6216 N.am      1 <0>         0.0000
     19 O1         -1.2703   -1.4609    3.6944 O.2       1 <0>         0.0000
     20 O2          2.2299   -0.4108    3.7066 O.2       1 <0>         0.0000
     21 O3          3.2186   -1.5159    0.7230 O.3       1 <0>         0.0000
     22 S1         -2.0492    2.4644    0.7791 S.3       1 <0>         0.0000
     23 Cl1        -0.4502   -6.3727    7.4576 Cl        1 <0>         0.0000
     24 H1         -3.0172   -2.3146    8.1901 H         1 <0>         0.0000
     25 H2         -2.2503   -1.2495    6.0977 H         1 <0>         0.0000
     26 H3         -2.2317   -4.5731    8.8010 H         1 <0>         0.0000
     27 H4          0.1227   -4.7258    5.1954 H         1 <0>         0.0000
     28 H5         -4.8186    1.4878    0.6213 H         1 <0>         0.0000
     29 H6         -5.0586    1.3975   -1.1249 H         1 <0>         0.0000
     30 H7         -3.7990    0.4164   -0.3457 H         1 <0>         0.0000
     31 H8         -4.5245    4.0235    0.4785 H         1 <0>         0.0000
     32 H9         -4.7599    3.9723   -1.2700 H         1 <0>         0.0000
     33 H10        -3.2998    4.7201   -0.5881 H         1 <0>         0.0000
     34 H11        -0.1531    0.5335    1.9082 H         1 <0>         0.0000
     35 H12         0.7975    1.7493    1.0822 H         1 <0>         0.0000
     36 H13        -1.6176    0.2727   -0.0585 H         1 <0>         0.0000
     37 H14        -0.7009    1.4813   -0.9501 H         1 <0>         0.0000
     38 H15         2.9484    0.3859    1.4229 H         1 <0>         0.0000
     39 H16         0.5915   -1.2082    0.2610 H         1 <0>         0.0000
     40 H17        -2.7965    2.4239   -1.4795 H         1 <0>         0.0000
     41 H18         0.8845    0.1717   -1.5934 H         1 <0>         0.0000
     42 H19         2.2416   -0.6802   -1.2969 H         1 <0>         0.0000
     43 H20         1.2257   -3.3847    4.3060 H         1 <0>         0.0000
     44 H21         0.9630   -2.6038    1.7309 H         1 <0>         0.0000
     45 H22         2.7041   -2.3378    0.6655 H         1 <0>         0.0000
@<TRIPOS>BOND
     1    1    2 ar
     2    1    3 ar
     3    2    5 ar
     4    3    6 ar
     5    4    5 ar
     6    4    6 ar
     7    5    7 1
     8    6   23 1
     9    7   17 am
    10    7   19 2
    11    8   13 1
    12    8   18 am
    13    8   20 2
    14    9   15 1
    15   10   15 1
    16   11   12 1
    17   11   14 1
    18   12   22 1
    19   13   14 1
    20   13   21 1
    21   14   16 1
    22   15   22 1
    23   17   18 1
    24    1   24 1
    25    2   25 1
    26    3   26 1
    27    4   27 1
    28    9   28 1
    29    9   29 1
    30    9   30 1
    31   10   31 1
    32   10   32 1
    33   10   33 1
    34   11   34 1
    35   11   35 1
    36   12   36 1
    37   12   37 1
    38   13   38 1
    39   14   39 1
    40   15   40 1
    41   16   41 1
    42   16   42 1
    43   17   43 1
    44   18   44 1
    45   21   45 1
@<TRIPOS>MOLECULE
LIGAND
   45    45     0     0     0
SMALL
NO_CHARGES

@<TRIPOS>ATOM
      1 C1         -0.2959   -1.7283    8.4655 C.ar      1 <0>         0.0000
      2 C2          0.0807   -1.4558    7.1504 C.ar      1 <0>         0.0000
      3 C3         -1.6473   -1.8121    8.8008 C.ar      1 <0>         0.0000
      4 C4         -2.2454   -1.3505    6.5060 C.ar      1 <0>         0.0000
      5 C5         -0.8940   -1.2668    6.1707 C.ar      1 <0>         0.0000
      6 C6         -2.6221   -1.6232    7.8211 C.ar      1 <0>         0.0000
      7 C7         -0.4919   -0.9759    4.7701 C.2       1 <0>         0.0000
      8 C8          1.9325   -1.0133    2.6768 C.2       1 <0>         0.0000
      9 C9          4.6590    3.8060   -3.6175 C.3       1 <0>         0.0000
     10 C10         2.7384    4.5764   -2.1830 C.3       1 <0>         0.0000
     11 C11         1.5761    0.1765   -1.0474 C.3       1 <0>         0.0000
     12 C12         2.3784    1.4800   -1.1273 C.3       1 <0>         0.0000
     13 C13         2.3649   -0.5352    1.2935 C.3       1 <0>         0.0000
     14 C14         1.1534   -0.2750    0.3710 C.3       1 <0>         0.0000
     15 C15         3.7349    3.4566   -2.4572 C.3       1 <0>         0.0000
     16 N1          0.3597   -1.5080    0.3138 N.3       1 <0>         0.0000
     17 N2          0.7320   -0.3536    4.6161 N.am      1 <0>         0.0000
     18 N3          1.1743   -0.0714    3.3469 N.am      1 <0>         0.0000
     19 O1         -1.2351   -1.3059    3.8493 O.2       1 <0>         0.0000
     20 O2          2.2555   -2.1109    3.1269 O.2       1 <0>         0.0000
     21 O3          3.2186   -1.5159    0.7230 O.3       1 <0>         0.0000
     22 S1          2.8465    1.9264   -2.8249 S.3       1 <0>         0.0000
     23 Cl1        -4.2894   -1.7271    8.2355 Cl        1 <0>         0.0000
     24 H1          0.4631   -1.8757    9.2280 H         1 <0>         0.0000
     25 H2          1.1369   -1.3929    6.9013 H         1 <0>         0.0000
     26 H3         -1.9258   -2.0251    9.8297 H         1 <0>         0.0000
     27 H4         -3.0036   -1.2033    5.7395 H         1 <0>         0.0000
     28 H5          4.0760    3.9846   -4.5280 H         1 <0>         0.0000
     29 H6          5.2297    4.7186   -3.4120 H         1 <0>         0.0000
     30 H7          5.3674    2.9982   -3.8338 H         1 <0>         0.0000
     31 H8          2.1258    4.7669   -3.0714 H         1 <0>         0.0000
     32 H9          3.2495    5.5128   -1.9328 H         1 <0>         0.0000
     33 H10         2.0576    4.3258   -1.3615 H         1 <0>         0.0000
     34 H11         2.1843   -0.6108   -1.5125 H         1 <0>         0.0000
     35 H12         0.6847    0.2765   -1.6798 H         1 <0>         0.0000
     36 H13         3.3029    1.3655   -0.5514 H         1 <0>         0.0000
     37 H14         1.8267    2.3139   -0.6838 H         1 <0>         0.0000
     38 H15         2.9484    0.3859    1.4229 H         1 <0>         0.0000
     39 H16         0.5249    0.4957    0.8291 H         1 <0>         0.0000
     40 H17         4.3362    3.2822   -1.5586 H         1 <0>         0.0000
     41 H18        -0.4842   -1.3249   -0.2178 H         1 <0>         0.0000
     42 H19         0.0690   -1.7492    1.2550 H         1 <0>         0.0000
     43 H20         1.2931   -0.1098    5.4249 H         1 <0>         0.0000
     44 H21         0.9480    0.8148    2.9078 H         1 <0>         0.0000
     45 H22         2.7041   -2.3378    0.6655 H         1 <0>         0.0000
@<TRIPOS>BOND
     1    1    2 ar
     2    1    3 ar
     3    2    5 ar
     4    3    6 ar
     5    4    5 ar
     6    4    6 ar
     7    5    7 1
     8    6   23 1
     9    7   17 am
    10    7   19 2
    11    8   13 1
    12    8   18 am
    13    8   20 2
    14    9   15 1
    15   10   15 1
    16   11   12 1
    17   11   14 1
    18   12   22 1
    19   13   14 1
    20   13   21 1
    21   14   16 1
    22   15   22 1
    23   17   18 1
    24    1   24 1
    25    2   25 1
    26    3   26 1
    27    4   27 1
    28    9   28 1
    29    9   29 1
    30    9   30 1
    31   10   31 1
    32   10   32 1
    33   10   33 1
    34   11   34 1
    35   11   35 1
    36   12   36 1
    37   12   37 1
    38   13   38 1
    39   14   39 1
    40   15   40 1
    41   16   41 1
    42   16   42 1
    43   17   43 1
    44   18   44 1
    45   21   45 1
@<TRIPOS>MOLECULE
LIGAND
   45    45     0     0     0
SMALL
NO_CHARGES

@<TRIPOS>ATOM
      1 C1          0.8357    0.1354    9.3996 C.ar      1 <0>         0.0000
      2 C2          1.3551    0.4336    8.1400 C.ar      1 <0>         0.0000
      3 C3         -0.0643   -0.9196    9.5510 C.ar      1 <0>         0.0000
      4 C4          0.0746   -1.3780    7.1830 C.ar      1 <0>         0.0000
      5 C5          0.9746   -0.3231    7.0316 C.ar      1 <0>         0.0000
      6 C6         -0.4448   -1.6762    8.4427 C.ar      1 <0>         0.0000
      7 C7          1.5280   -0.0043    5.6900 C.2       1 <0>         0.0000
      8 C8          1.9325   -1.0133    2.6768 C.2       1 <0>         0.0000
      9 C9         -3.1756    2.3246   -2.4935 C.3       1 <0>         0.0000
     10 C10        -1.2120    2.4385   -4.0656 C.3       1 <0>         0.0000
     11 C11         1.5761    0.1765   -1.0474 C.3       1 <0>         0.0000
     12 C12         0.4360    0.4372   -2.0380 C.3       1 <0>         0.0000
     13 C13         2.3649   -0.5352    1.2935 C.3       1 <0>         0.0000
     14 C14         1.1534   -0.2750    0.3710 C.3       1 <0>         0.0000
     15 C15        -1.8423    1.7019   -2.8899 C.3       1 <0>         0.0000
     16 N1          0.3597   -1.5080    0.3138 N.3       1 <0>         0.0000
     17 N2          0.7320   -0.3536    4.6161 N.am      1 <0>         0.0000
     18 N3          1.1743   -0.0714    3.3469 N.am      1 <0>         0.0000
     19 O1          2.6215    0.5492    5.6056 O.2       1 <0>         0.0000
     20 O2          2.2555   -2.1109    3.1269 O.2       1 <0>         0.0000
     21 O3          3.2186   -1.5159    0.7230 O.3       1 <0>         0.0000
     22 S1         -0.7139    1.7277   -1.4786 S.3       1 <0>         0.0000
     23 Cl1        -1.5550   -2.9781    8.6304 Cl        1 <0>         0.0000
     24 H1          1.1323    0.7244   10.2624 H         1 <0>         0.0000
     25 H2          2.0556    1.2581    8.0346 H         1 <0>         0.0000
     26 H3         -0.4608   -1.1402   10.5387 H         1 <0>         0.0000
     27 H4         -0.2200   -1.9669    6.3167 H         1 <0>         0.0000
     28 H5         -3.0368    3.3747   -2.2131 H         1 <0>         0.0000
     29 H6         -3.8895    2.3010   -3.3245 H         1 <0>         0.0000
     30 H7         -3.6275    1.8123   -1.6365 H         1 <0>         0.0000
     31 H8         -1.0430    3.4904   -3.8095 H         1 <0>         0.0000
     32 H9         -1.8649    2.4183   -4.9453 H         1 <0>         0.0000
     33 H10        -0.2436    2.0085   -4.3458 H         1 <0>         0.0000
     34 H11         2.1631    1.1018   -0.9736 H         1 <0>         0.0000
     35 H12         2.2520   -0.5707   -1.4824 H         1 <0>         0.0000
     36 H13        -0.1421   -0.4839   -2.1668 H         1 <0>         0.0000
     37 H14         0.8216    0.7132   -3.0237 H         1 <0>         0.0000
     38 H15         2.9484    0.3859    1.4229 H         1 <0>         0.0000
     39 H16         0.5249    0.4957    0.8291 H         1 <0>         0.0000
     40 H17        -2.0027    0.6542   -3.1661 H         1 <0>         0.0000
     41 H18        -0.4842   -1.3249   -0.2178 H         1 <0>         0.0000
     42 H19         0.0690   -1.7492    1.2550 H         1 <0>         0.0000
     43 H20        -0.1619   -0.8097    4.7623 H         1 <0>         0.0000
     44 H21         0.9480    0.8148    2.9078 H         1 <0>         0.0000
     45 H22         2.7041   -2.3378    0.6655 H         1 <0>         0.0000
@<TRIPOS>BOND
     1    1    2 ar
     2    1    3 ar
     3    2    5 ar
     4    3    6 ar
     5    4    5 ar
     6    4    6 ar
     7    5    7 1
     8    6   23 1
     9    7   17 am
    10    7   19 2
    11    8   13 1
    12    8   18 am
    13    8   20 2
    14    9   15 1
    15   10   15 1
    16   11   12 1
    17   11   14 1
    18   12   22 1
    19   13   14 1
    20   13   21 1
    21   14   16 1
    22   15   22 1
    23   17   18 1
    24    1   24 1
    25    2   25 1
    26    3   26 1
    27    4   27 1
    28    9   28 1
    29    9   29 1
    30    9   30 1
    31   10   31 1
    32   10   32 1
    33   10   33 1
    34   11   34 1
    35   11   35 1
    36   12   36 1
    37   12   37 1
    38   13   38 1
    39   14   39 1
    40   15   40 1
    41   16   41 1
    42   16   42 1
    43   17   43 1
    44   18   44 1
    45   21   45 1
@<TRIPOS>MOLECULE
LIGAND
   45    45     0     0     0
SMALL
NO_CHARGES

@<TRIPOS>ATOM
      1 C1          0.6850   -5.9098    7.3717 C.ar      1 <0>         0.0000
      2 C2          1.2259   -5.4217    6.1822 C.ar      1 <0>         0.0000
      3 C3         -0.2049   -5.1263    8.1065 C.ar      1 <0>         0.0000
      4 C4         -0.0128   -3.3664    6.4625 C.ar      1 <0>         0.0000
      5 C5          0.8770   -4.1499    5.7277 C.ar      1 <0>         0.0000
      6 C6         -0.5537   -3.8546    7.6520 C.ar      1 <0>         0.0000
      7 C7          1.4542   -3.6304    4.4609 C.2       1 <0>         0.0000
      8 C8          1.9325   -1.0133    2.6768 C.2       1 <0>         0.0000
      9 C9         -4.1299   -0.4675   -2.0276 C.3       1 <0>         0.0000
     10 C10        -4.2566    1.4118   -0.3565 C.3       1 <0>         0.0000
     11 C11         0.2195    0.8307    0.9188 C.3       1 <0>         0.0000
     12 C12        -1.0001    1.1700    0.0549 C.3       1 <0>         0.0000
     13 C13         2.3649   -0.5352    1.2935 C.3       1 <0>         0.0000
     14 C14         1.1534   -0.2750    0.3710 C.3       1 <0>         0.0000
     15 C15        -3.3416    0.5718   -1.2395 C.3       1 <0>         0.0000
     16 N1          1.6681    0.0834   -0.9557 N.3       1 <0>         0.0000
     17 N2          0.6851   -2.6985    3.7909 N.am      1 <0>         0.0000
     18 N3          1.1665   -2.1628    2.6216 N.am      1 <0>         0.0000
     19 O1          2.5559   -4.0300    4.0926 O.2       1 <0>         0.0000
     20 O2          2.2299   -0.4108    3.7066 O.2       1 <0>         0.0000
     21 O3          3.2186   -1.5159    0.7230 O.3       1 <0>         0.0000
     22 S1         -2.0977   -0.2515   -0.2193 S.3       1 <0>         0.0000
     23 Cl1        -1.6522   -2.8885    8.5590 Cl        1 <0>         0.0000
     24 H1          0.9565   -6.9001    7.7252 H         1 <0>         0.0000
     25 H2          1.9183   -6.0415    5.6185 H         1 <0>         0.0000
     26 H3         -0.6183   -5.5200    9.0315 H         1 <0>         0.0000
     27 H4         -0.2836   -2.3748    6.1052 H         1 <0>         0.0000
     28 H5         -4.6663   -1.1363   -1.3453 H         1 <0>         0.0000
     29 H6         -4.8772    0.0053   -2.6747 H         1 <0>         0.0000
     30 H7         -3.4774   -1.0886   -2.6519 H         1 <0>         0.0000
     31 H8         -4.7949    0.7719    0.3515 H         1 <0>         0.0000
     32 H9         -5.0077    1.9429   -0.9517 H         1 <0>         0.0000
     33 H10        -3.6957    2.1500    0.2280 H         1 <0>         0.0000
     34 H11        -0.1531    0.5335    1.9082 H         1 <0>         0.0000
     35 H12         0.7975    1.7493    1.0822 H         1 <0>         0.0000
     36 H13        -0.6573    1.5138   -0.9268 H         1 <0>         0.0000
     37 H14        -1.5832    1.9849    0.4933 H         1 <0>         0.0000
     38 H15         2.9484    0.3859    1.4229 H         1 <0>         0.0000
     39 H16         0.5915   -1.2082    0.2610 H         1 <0>         0.0000
     40 H17        -2.8138    1.2291   -1.9386 H         1 <0>         0.0000
     41 H18         0.8845    0.1717   -1.5934 H         1 <0>         0.0000
     42 H19         2.2416   -0.6802   -1.2969 H         1 <0>         0.0000
     43 H20        -0.2179   -2.4154    4.1557 H         1 <0>         0.0000
     44 H21         0.9630   -2.6038    1.7309 H         1 <0>         0.0000
     45 H22         2.7041   -2.3378    0.6655 H         1 <0>         0.0000
@<TRIPOS>BOND
     1    1    2 ar
     2    1    3 ar
     3    2    5 ar
     4    3    6 ar
     5    4    5 ar
     6    4    6 ar
     7    5    7 1
     8    6   23 1
     9    7   17 am
    10    7   19 2
    11    8   13 1
    12    8   18 am
    13    8   20 2
    14    9   15 1
    15   10   15 1
    16   11   12 1
    17   11   14 1
    18   12   22 1
    19   13   14 1
    20   13   21 1
    21   14   16 1
    22   15   22 1
    23   17   18 1
    24    1   24 1
    25    2   25 1
    26    3   26 1
    27    4   27 1
    28    9   28 1
    29    9   29 1
    30    9   30 1
    31   10   31 1
    32   10   32 1
    33   10   33 1
    34   11   34 1
    35   11   35 1
    36   12   36 1
    37   12   37 1
    38   13   38 1
    39   14   39 1
    40   15   40 1
    41   16   41 1
    42   16   42 1
    43   17   43 1
    44   18   44 1
    45   21   45 1
@<TRIPOS>MOLECULE
LIGAND
   45    45     0     0     0
SMALL
NO_CHARGES

@<TRIPOS>ATOM
      1 C1         -2.1326   -2.6043    7.7561 C.ar      1 <0>         0.0000
      2 C2         -1.7551   -2.3302    6.4416 C.ar      1 <0>         0.0000
      3 C3         -1.6491   -1.8151    8.7997 C.ar      1 <0>         0.0000
      4 C4         -0.4104   -0.4776    7.2142 C.ar      1 <0>         0.0000
      5 C5         -0.8940   -1.2668    6.1707 C.ar      1 <0>         0.0000
      6 C6         -0.7879   -0.7518    8.5287 C.ar      1 <0>         0.0000
      7 C7         -0.4919   -0.9759    4.7701 C.2       1 <0>         0.0000
      8 C8          1.9325   -1.0133    2.6768 C.2       1 <0>         0.0000
      9 C9          1.1606    4.0721   -2.8209 C.3       1 <0>         0.0000
     10 C10         1.1711    2.6068   -4.8686 C.3       1 <0>         0.0000
     11 C11         1.5761    0.1765   -1.0474 C.3       1 <0>         0.0000
     12 C12         2.3784    1.4800   -1.1273 C.3       1 <0>         0.0000
     13 C13         2.3649   -0.5352    1.2935 C.3       1 <0>         0.0000
     14 C14         1.1534   -0.2750    0.3710 C.3       1 <0>         0.0000
     15 C15         1.2741    2.6470   -3.3486 C.3       1 <0>         0.0000
     16 N1          0.3597   -1.5080    0.3138 N.3       1 <0>         0.0000
     17 N2          0.7320   -0.3536    4.6161 N.am      1 <0>         0.0000
     18 N3          1.1743   -0.0714    3.3469 N.am      1 <0>         0.0000
     19 O1         -1.2351   -1.3059    3.8493 O.2       1 <0>         0.0000
     20 O2          2.2555   -2.1109    3.1269 O.2       1 <0>         0.0000
     21 O3          3.2186   -1.5159    0.7230 O.3       1 <0>         0.0000
     22 S1          2.8465    1.9264   -2.8249 S.3       1 <0>         0.0000
     23 Cl1        -0.1920    0.2220    9.8169 Cl        1 <0>         0.0000
     24 H1         -2.8034   -3.4321    7.9668 H         1 <0>         0.0000
     25 H2         -2.1385   -2.9523    5.6369 H         1 <0>         0.0000
     26 H3         -1.9519   -2.0407    9.8189 H         1 <0>         0.0000
     27 H4          0.2608    0.3516    6.9998 H         1 <0>         0.0000
     28 H5          1.9558    4.6980   -3.2410 H         1 <0>         0.0000
     29 H6          0.2046    4.5270   -3.1034 H         1 <0>         0.0000
     30 H7          1.2520    4.1126   -1.7295 H         1 <0>         0.0000
     31 H8          1.9665    3.2101   -5.3202 H         1 <0>         0.0000
     32 H9          0.2154    3.0160   -5.2145 H         1 <0>         0.0000
     33 H10         1.2700    1.5872   -5.2582 H         1 <0>         0.0000
     34 H11         2.1843   -0.6108   -1.5125 H         1 <0>         0.0000
     35 H12         0.6847    0.2765   -1.6798 H         1 <0>         0.0000
     36 H13         3.3029    1.3655   -0.5514 H         1 <0>         0.0000
     37 H14         1.8267    2.3139   -0.6838 H         1 <0>         0.0000
     38 H15         2.9484    0.3859    1.4229 H         1 <0>         0.0000
     39 H16         0.5249    0.4957    0.8291 H         1 <0>         0.0000
     40 H17         0.4716    2.0389   -2.9175 H         1 <0>         0.0000
     41 H18        -0.4842   -1.3249   -0.2178 H         1 <0>         0.0000
     42 H19         0.0690   -1.7492    1.2550 H         1 <0>         0.0000
     43 H20         1.2931   -0.1098    5.4249 H         1 <0>         0.0000
     44 H21         0.9480    0.8148    2.9078 H         1 <0>         0.0000
     45 H22         2.7041   -2.3378    0.6655 H         1 <0>         0.0000
@<TRIPOS>BOND
     1    1    2 ar
     2    1    3 ar
     3    2    5 ar
     4    3    6 ar
     5    4    5 ar
     6    4    6 ar
     7    5    7 1
     8    6   23 1
     9    7   17 am
    10    7   19 2
    11    8   13 1
    12    8   18 am
    13    8   20 2
    14    9   15 1
    15   10   15 1
    16   11   12 1
    17   11   14 1
    18   12   22 1
    19   13   14 1
    20   13   21 1
    21   14   16 1
    22   15   22 1
    23   17   18 1
    24    1   24 1
    25    2   25 1
    26    3   26 1
    27    4   27 1
    28    9   28 1
    29    9   29 1
    30    9   30 1
    31   10   31 1
    32   10   32 1
    33   10   33 1
    34   11   34 1
    35   11   35 1
    36   12   36 1
    37   12   37 1
    38   13   38 1
    39   14   39 1
    40   15   40 1
    41   16   41 1
    42   16   42 1
    43   17   43 1
    44   18   44 1
    45   21   45 1
@<TRIPOS>MOLECULE
LIGAND
   45    45     0     0     0
SMALL
NO_CHARGES

@<TRIPOS>ATOM
      1 C1          0.3537   -1.6987    8.6788 C.ar      1 <0>         0.0000
      2 C2          0.6500   -1.3890    7.3514 C.ar      1 <0>         0.0000
      3 C3         -0.8291   -1.2362    9.2556 C.ar      1 <0>         0.0000
      4 C4         -1.4194   -0.1541    7.1777 C.ar      1 <0>         0.0000
      5 C5         -0.2366   -0.6167    6.6009 C.ar      1 <0>         0.0000
      6 C6         -1.7156   -0.4639    8.5051 C.ar      1 <0>         0.0000
      7 C7          0.0801   -0.2867    5.1871 C.2       1 <0>         0.0000
      8 C8          1.9325   -1.0133    2.6768 C.2       1 <0>         0.0000
      9 C9         -1.3321   -3.2415   -3.4235 C.3       1 <0>         0.0000
     10 C10         0.8182   -2.2457   -4.2751 C.3       1 <0>         0.0000
     11 C11         0.2728   -1.5333    0.1821 C.3       1 <0>         0.0000
     12 C12        -0.9662   -1.3605   -0.7034 C.3       1 <0>         0.0000
     13 C13         2.3649   -0.5352    1.2935 C.3       1 <0>         0.0000
     14 C14         1.1534   -0.2750    0.3710 C.3       1 <0>         0.0000
     15 C15        -0.0858   -2.4416   -3.0639 C.3       1 <0>         0.0000
     16 N1          0.3761    0.8265    0.9508 N.3       1 <0>         0.0000
     17 N2          1.4238   -0.2520    4.8674 N.am      1 <0>         0.0000
     18 N3          1.7877    0.0290    3.5734 N.am      1 <0>         0.0000
     19 O1         -0.8375   -0.0833    4.3961 O.2       1 <0>         0.0000
     20 O2          1.7602   -2.2018    2.9407 O.2       1 <0>         0.0000
     21 O3          3.2186   -1.5159    0.7230 O.3       1 <0>         0.0000
     22 S1         -0.5659   -0.8328   -2.3950 S.3       1 <0>         0.0000
     23 Cl1        -3.1752    0.1061    9.2174 Cl        1 <0>         0.0000
     24 H1          1.0439   -2.3003    9.2628 H         1 <0>         0.0000
     25 H2          1.5748   -1.7550    6.9130 H         1 <0>         0.0000
     26 H3         -1.0465   -1.4855   10.2910 H         1 <0>         0.0000
     27 H4         -2.1094    0.4477    6.5897 H         1 <0>         0.0000
     28 H5         -1.9025   -2.7267   -4.2047 H         1 <0>         0.0000
     29 H6         -1.0716   -4.2331   -3.8102 H         1 <0>         0.0000
     30 H7         -1.9972   -3.3715   -2.5621 H         1 <0>         0.0000
     31 H8          0.2808   -1.7156   -5.0694 H         1 <0>         0.0000
     32 H9          1.1454   -3.2064   -4.6881 H         1 <0>         0.0000
     33 H10         1.7084   -1.6554   -4.0296 H         1 <0>         0.0000
     34 H11         0.8786   -2.3375   -0.2566 H         1 <0>         0.0000
     35 H12        -0.0491   -1.9048    1.1634 H         1 <0>         0.0000
     36 H13        -1.6137   -0.5937   -0.2651 H         1 <0>         0.0000
     37 H14        -1.5515   -2.2833   -0.7522 H         1 <0>         0.0000
     38 H15         2.9484    0.3859    1.4229 H         1 <0>         0.0000
     39 H16         1.5222    0.0640   -0.6025 H         1 <0>         0.0000
     40 H17         0.4693   -2.9722   -2.2830 H         1 <0>         0.0000
     41 H18        -0.3732    1.0655    0.3105 H         1 <0>         0.0000
     42 H19         0.9747    1.6420    1.0220 H         1 <0>         0.0000
     43 H20         2.1281   -0.4306    5.5750 H         1 <0>         0.0000
     44 H21         1.9478    0.9869    3.2798 H         1 <0>         0.0000
     45 H22         2.7041   -2.3378    0.6655 H         1 <0>         0.0000
@<TRIPOS>BOND
     1    1    2 ar
     2    1    3 ar
     3    2    5 ar
     4    3    6 ar
     5    4    5 ar
     6    4    6 ar
     7    5    7 1
     8    6   23 1
     9    7   17 am
    10    7   19 2
    11    8   13 1
    12    8   18 am
    13    8   20 2
    14    9   15 1
    15   10   15 1
    16   11   12 1
    17   11   14 1
    18   12   22 1
    19   13   14 1
    20   13   21 1
    21   14   16 1
    22   15   22 1
    23   17   18 1
    24    1   24 1
    25    2   25 1
    26    3   26 1
    27    4   27 1
    28    9   28 1
    29    9   29 1
    30    9   30 1
    31   10   31 1
    32   10   32 1
    33   10   33 1
    34   11   34 1
    35   11   35 1
    36   12   36 1
    37   12   37 1
    38   13   38 1
    39   14   39 1
    40   15   40 1
    41   16   41 1
    42   16   42 1
    43   17   43 1
    44   18   44 1
    45   21   45 1
@<TRIPOS>MOLECULE
LIGAND
   45    45     0     0     0
SMALL
NO_CHARGES

@<TRIPOS>ATOM
      1 C1          0.3537   -1.6987    8.6788 C.ar      1 <0>         0.0000
      2 C2          0.6500   -1.3890    7.3514 C.ar      1 <0>         0.0000
      3 C3         -0.8291   -1.2362    9.2556 C.ar      1 <0>         0.0000
      4 C4         -1.4194   -0.1541    7.1777 C.ar      1 <0>         0.0000
      5 C5         -0.2366   -0.6167    6.6009 C.ar      1 <0>         0.0000
      6 C6         -1.7156   -0.4639    8.5051 C.ar      1 <0>         0.0000
      7 C7          0.0801   -0.2867    5.1871 C.2       1 <0>         0.0000
      8 C8          1.9325   -1.0133    2.6768 C.2       1 <0>         0.0000
      9 C9         -3.9971   -1.8615    0.5747 C.3       1 <0>         0.0000
     10 C10        -3.2820   -4.2232    1.0762 C.3       1 <0>         0.0000
     11 C11         0.2728   -1.5333    0.1821 C.3       1 <0>         0.0000
     12 C12        -0.9662   -1.3605   -0.7034 C.3       1 <0>         0.0000
     13 C13         2.3649   -0.5352    1.2935 C.3       1 <0>         0.0000
     14 C14         1.1534   -0.2750    0.3710 C.3       1 <0>         0.0000
     15 C15        -2.8207   -2.8235    0.6883 C.3       1 <0>         0.0000
     16 N1          0.3761    0.8265    0.9508 N.3       1 <0>         0.0000
     17 N2          1.4238   -0.2520    4.8674 N.am      1 <0>         0.0000
     18 N3          1.7877    0.0290    3.5734 N.am      1 <0>         0.0000
     19 O1         -0.8375   -0.0833    4.3961 O.2       1 <0>         0.0000
     20 O2          1.7602   -2.2018    2.9407 O.2       1 <0>         0.0000
     21 O3          3.2186   -1.5159    0.7230 O.3       1 <0>         0.0000
     22 S1         -1.9323   -2.8885   -0.8842 S.3       1 <0>         0.0000
     23 Cl1        -3.1752    0.1061    9.2174 Cl        1 <0>         0.0000
     24 H1          1.0439   -2.3003    9.2628 H         1 <0>         0.0000
     25 H2          1.5748   -1.7550    6.9130 H         1 <0>         0.0000
     26 H3         -1.0465   -1.4855   10.2910 H         1 <0>         0.0000
     27 H4         -2.1094    0.4477    6.5897 H         1 <0>         0.0000
     28 H5         -4.7074   -2.2163   -0.1804 H         1 <0>         0.0000
     29 H6         -4.5413   -1.7835    1.5226 H         1 <0>         0.0000
     30 H7         -3.6763   -0.8564    0.2780 H         1 <0>         0.0000
     31 H8         -3.9813   -4.6143    0.3288 H         1 <0>         0.0000
     32 H9         -3.8039   -4.2184    2.0397 H         1 <0>         0.0000
     33 H10        -2.4439   -4.9263    1.1424 H         1 <0>         0.0000
     34 H11         0.8786   -2.3375   -0.2566 H         1 <0>         0.0000
     35 H12        -0.0491   -1.9048    1.1634 H         1 <0>         0.0000
     36 H13        -0.6485   -1.0529   -1.7052 H         1 <0>         0.0000
     37 H14        -1.6218   -0.5733   -0.3201 H         1 <0>         0.0000
     38 H15         2.9484    0.3859    1.4229 H         1 <0>         0.0000
     39 H16         1.5222    0.0640   -0.6025 H         1 <0>         0.0000
     40 H17        -2.1237   -2.4514    1.4468 H         1 <0>         0.0000
     41 H18        -0.3732    1.0655    0.3105 H         1 <0>         0.0000
     42 H19         0.9747    1.6420    1.0220 H         1 <0>         0.0000
     43 H20         2.1281   -0.4306    5.5750 H         1 <0>         0.0000
     44 H21         1.9478    0.9869    3.2798 H         1 <0>         0.0000
     45 H22         2.7041   -2.3378    0.6655 H         1 <0>         0.0000
@<TRIPOS>BOND
     1    1    2 ar
     2    1    3 ar
     3    2    5 ar
     4    3    6 ar
     5    4    5 ar
     6    4    6 ar
     7    5    7 1
     8    6   23 1
     9    7   17 am
    10    7   19 2
    11    8   13 1
    12    8   18 am
    13    8   20 2
    14    9   15 1
    15   10   15 1
    16   11   12 1
    17   11   14 1
    18   12   22 1
    19   13   14 1
    20   13   21 1
    21   14   16 1
    22   15   22 1
    23   17   18 1
    24    1   24 1
    25    2   25 1
    26    3   26 1
    27    4   27 1
    28    9   28 1
    29    9   29 1
    30    9   30 1
    31   10   31 1
    32   10   32 1
    33   10   33 1
    34   11   34 1
    35   11   35 1
    36   12   36 1
    37   12   37 1
    38   13   38 1
    39   14   39 1
    40   15   40 1
    41   16   41 1
    42   16   42 1
    43   17   43 1
    44   18   44 1
    45   21   45 1
@<TRIPOS>MOLECULE
LIGAND
   45    45     0     0     0
SMALL
NO_CHARGES

@<TRIPOS>ATOM
      1 C1         -1.0489   -4.6607    7.0939 C.ar      1 <0>         0.0000
      2 C2         -0.5063   -4.1726    5.9053 C.ar      1 <0>         0.0000
      3 C3         -0.2082   -5.1260    8.1051 C.ar      1 <0>         0.0000
      4 C4          1.7177   -4.6153    6.7388 C.ar      1 <0>         0.0000
      5 C5          0.8770   -4.1499    5.7277 C.ar      1 <0>         0.0000
      6 C6          1.1751   -5.1033    7.9275 C.ar      1 <0>         0.0000
      7 C7          1.4542   -3.6304    4.4609 C.2       1 <0>         0.0000
      8 C8          1.9325   -1.0133    2.6768 C.2       1 <0>         0.0000
      9 C9         -4.1299   -0.4675   -2.0276 C.3       1 <0>         0.0000
     10 C10        -4.2566    1.4118   -0.3565 C.3       1 <0>         0.0000
     11 C11         0.2195    0.8307    0.9188 C.3       1 <0>         0.0000
     12 C12        -1.0001    1.1700    0.0549 C.3       1 <0>         0.0000
     13 C13         2.3649   -0.5352    1.2935 C.3       1 <0>         0.0000
     14 C14         1.1534   -0.2750    0.3710 C.3       1 <0>         0.0000
     15 C15        -3.3416    0.5718   -1.2395 C.3       1 <0>         0.0000
     16 N1          1.6681    0.0834   -0.9557 N.3       1 <0>         0.0000
     17 N2          0.6851   -2.6985    3.7909 N.am      1 <0>         0.0000
     18 N3          1.1665   -2.1628    2.6216 N.am      1 <0>         0.0000
     19 O1          2.5559   -4.0300    4.0926 O.2       1 <0>         0.0000
     20 O2          2.2299   -0.4108    3.7066 O.2       1 <0>         0.0000
     21 O3          3.2186   -1.5159    0.7230 O.3       1 <0>         0.0000
     22 S1         -2.0977   -0.2515   -0.2193 S.3       1 <0>         0.0000
     23 Cl1         2.2119   -5.6772    9.1758 Cl        1 <0>         0.0000
     24 H1         -2.1260   -4.6780    7.2321 H         1 <0>         0.0000
     25 H2         -1.1717   -3.8129    5.1246 H         1 <0>         0.0000
     26 H3         -0.6454   -5.5034    9.0259 H         1 <0>         0.0000
     27 H4          2.7965   -4.5959    6.5977 H         1 <0>         0.0000
     28 H5         -4.6663   -1.1363   -1.3453 H         1 <0>         0.0000
     29 H6         -4.8772    0.0053   -2.6747 H         1 <0>         0.0000
     30 H7         -3.4774   -1.0886   -2.6519 H         1 <0>         0.0000
     31 H8         -4.7949    0.7719    0.3515 H         1 <0>         0.0000
     32 H9         -5.0077    1.9429   -0.9517 H         1 <0>         0.0000
     33 H10        -3.6957    2.1500    0.2280 H         1 <0>         0.0000
     34 H11        -0.1531    0.5335    1.9082 H         1 <0>         0.0000
     35 H12         0.7975    1.7493    1.0822 H         1 <0>         0.0000
     36 H13        -0.6573    1.5138   -0.9268 H         1 <0>         0.0000
     37 H14        -1.5832    1.9849    0.4933 H         1 <0>         0.0000
     38 H15         2.9484    0.3859    1.4229 H         1 <0>         0.0000
     39 H16         0.5915   -1.2082    0.2610 H         1 <0>         0.0000
     40 H17        -2.8138    1.2291   -1.9386 H         1 <0>         0.0000
     41 H18         0.8845    0.1717   -1.5934 H         1 <0>         0.0000
     42 H19         2.2416   -0.6802   -1.2969 H         1 <0>         0.0000
     43 H20        -0.2179   -2.4154    4.1557 H         1 <0>         0.0000
     44 H21         0.9630   -2.6038    1.7309 H         1 <0>         0.0000
     45 H22         2.7041   -2.3378    0.6655 H         1 <0>         0.0000
@<TRIPOS>BOND
     1    1    2 ar
     2    1    3 ar
     3    2    5 ar
     4    3    6 ar
     5    4    5 ar
     6    4    6 ar
     7    5    7 1
     8    6   23 1
     9    7   17 am
    10    7   19 2
    11    8   13 1
    12    8   18 am
    13    8   20 2
    14    9   15 1
    15   10   15 1
    16   11   12 1
    17   11   14 1
    18   12   22 1
    19   13   14 1
    20   13   21 1
    21   14   16 1
    22   15   22 1
    23   17   18 1
    24    1   24 1
    25    2   25 1
    26    3   26 1
    27    4   27 1
    28    9   28 1
    29    9   29 1
    30    9   30 1
    31   10   31 1
    32   10   32 1
    33   10   33 1
    34   11   34 1
    35   11   35 1
    36   12   36 1
    37   12   37 1
    38   13   38 1
    39   14   39 1
    40   15   40 1
    41   16   41 1
    42   16   42 1
    43   17   43 1
    44   18   44 1
    45   21   45 1
@<TRIPOS>MOLECULE
LIGAND
   45    45     0     0     0
SMALL
NO_CHARGES

@<TRIPOS>ATOM
      1 C1          1.3177   -0.8505    9.3642 C.ar      1 <0>         0.0000
      2 C2          1.8364   -0.5518    8.1043 C.ar      1 <0>         0.0000
      3 C3         -0.0628   -0.9206    9.5514 C.ar      1 <0>         0.0000
      4 C4         -0.4059   -0.3930    7.2188 C.ar      1 <0>         0.0000
      5 C5          0.9746   -0.3231    7.0316 C.ar      1 <0>         0.0000
      6 C6         -0.9246   -0.6918    8.4788 C.ar      1 <0>         0.0000
      7 C7          1.5280   -0.0043    5.6900 C.2       1 <0>         0.0000
      8 C8          1.9325   -1.0133    2.6768 C.2       1 <0>         0.0000
      9 C9         -3.1756    2.3246   -2.4935 C.3       1 <0>         0.0000
     10 C10        -1.2120    2.4385   -4.0656 C.3       1 <0>         0.0000
     11 C11         1.5761    0.1765   -1.0474 C.3       1 <0>         0.0000
     12 C12         0.4360    0.4372   -2.0380 C.3       1 <0>         0.0000
     13 C13         2.3649   -0.5352    1.2935 C.3       1 <0>         0.0000
     14 C14         1.1534   -0.2750    0.3710 C.3       1 <0>         0.0000
     15 C15        -1.8423    1.7019   -2.8899 C.3       1 <0>         0.0000
     16 N1          0.3597   -1.5080    0.3138 N.3       1 <0>         0.0000
     17 N2          0.7320   -0.3536    4.6161 N.am      1 <0>         0.0000
     18 N3          1.1743   -0.0714    3.3469 N.am      1 <0>         0.0000
     19 O1          2.6215    0.5492    5.6056 O.2       1 <0>         0.0000
     20 O2          2.2555   -2.1109    3.1269 O.2       1 <0>         0.0000
     21 O3          3.2186   -1.5159    0.7230 O.3       1 <0>         0.0000
     22 S1         -0.7139    1.7277   -1.4786 S.3       1 <0>         0.0000
     23 Cl1        -2.6279   -0.7789    8.7104 Cl        1 <0>         0.0000
     24 H1          1.9889   -1.0289   10.1992 H         1 <0>         0.0000
     25 H2          2.9139   -0.5000    7.9709 H         1 <0>         0.0000
     26 H3         -0.4524   -1.1543   10.5388 H         1 <0>         0.0000
     27 H4         -1.0758   -0.2147    6.3801 H         1 <0>         0.0000
     28 H5         -3.0368    3.3747   -2.2131 H         1 <0>         0.0000
     29 H6         -3.8895    2.3010   -3.3245 H         1 <0>         0.0000
     30 H7         -3.6275    1.8123   -1.6365 H         1 <0>         0.0000
     31 H8         -1.0430    3.4904   -3.8095 H         1 <0>         0.0000
     32 H9         -1.8649    2.4183   -4.9453 H         1 <0>         0.0000
     33 H10        -0.2436    2.0085   -4.3458 H         1 <0>         0.0000
     34 H11         2.1631    1.1018   -0.9736 H         1 <0>         0.0000
     35 H12         2.2520   -0.5707   -1.4824 H         1 <0>         0.0000
     36 H13        -0.1421   -0.4839   -2.1668 H         1 <0>         0.0000
     37 H14         0.8216    0.7132   -3.0237 H         1 <0>         0.0000
     38 H15         2.9484    0.3859    1.4229 H         1 <0>         0.0000
     39 H16         0.5249    0.4957    0.8291 H         1 <0>         0.0000
     40 H17        -2.0027    0.6542   -3.1661 H         1 <0>         0.0000
     41 H18        -0.4842   -1.3249   -0.2178 H         1 <0>         0.0000
     42 H19         0.0690   -1.7492    1.2550 H         1 <0>         0.0000
     43 H20        -0.1619   -0.8097    4.7623 H         1 <0>         0.0000
     44 H21         0.9480    0.8148    2.9078 H         1 <0>         0.0000
     45 H22         2.7041   -2.3378    0.6655 H         1 <0>         0.0000
@<TRIPOS>BOND
     1    1    2 ar
     2    1    3 ar
     3    2    5 ar
     4    3    6 ar
     5    4    5 ar
     6    4    6 ar
     7    5    7 1
     8    6   23 1
     9    7   17 am
    10    7   19 2
    11    8   13 1
    12    8   18 am
    13    8   20 2
    14    9   15 1
    15   10   15 1
    16   11   12 1
    17   11   14 1
    18   12   22 1
    19   13   14 1
    20   13   21 1
    21   14   16 1
    22   15   22 1
    23   17   18 1
    24    1   24 1
    25    2   25 1
    26    3   26 1
    27    4   27 1
    28    9   28 1
    29    9   29 1
    30    9   30 1
    31   10   31 1
    32   10   32 1
    33   10   33 1
    34   11   34 1
    35   11   35 1
    36   12   36 1
    37   12   37 1
    38   13   38 1
    39   14   39 1
    40   15   40 1
    41   16   41 1
    42   16   42 1
    43   17   43 1
    44   18   44 1
    45   21   45 1
@<TRIPOS>MOLECULE
LIGAND
   45    45     0     0     0
SMALL
NO_CHARGES

@<TRIPOS>ATOM
      1 C1          1.4050   -2.4049    8.7677 C.ar      1 <0>         0.0000
      2 C2          1.6744   -2.0859    7.4368 C.ar      1 <0>         0.0000
      3 C3          2.2499   -3.2707    9.4621 C.ar      1 <0>         0.0000
      4 C4          3.6334   -3.4986    7.4947 C.ar      1 <0>         0.0000
      5 C5          2.7886   -2.6327    6.8003 C.ar      1 <0>         0.0000
      6 C6          3.3641   -3.8176    8.8256 C.ar      1 <0>         0.0000
      7 C7          3.0744   -2.2928    5.3823 C.2       1 <0>         0.0000
      8 C8          1.9325   -1.0133    2.6768 C.2       1 <0>         0.0000
      9 C9         -3.5456    2.3208    3.0565 C.3       1 <0>         0.0000
     10 C10        -4.0220    0.6377    1.2453 C.3       1 <0>         0.0000
     11 C11         0.2195    0.8307    0.9188 C.3       1 <0>         0.0000
     12 C12        -1.0001    1.1700    0.0549 C.3       1 <0>         0.0000
     13 C13         2.3649   -0.5352    1.2935 C.3       1 <0>         0.0000
     14 C14         1.1534   -0.2750    0.3710 C.3       1 <0>         0.0000
     15 C15        -2.9459    1.4397    1.9673 C.3       1 <0>         0.0000
     16 N1          1.6681    0.0834   -0.9557 N.3       1 <0>         0.0000
     17 N2          2.6023   -1.0670    4.9540 N.am      1 <0>         0.0000
     18 N3          2.8469   -0.6810    3.6590 N.am      1 <0>         0.0000
     19 O1          3.7083   -3.0847    4.6892 O.2       1 <0>         0.0000
     20 O2          0.8915   -1.6405    2.8632 O.2       1 <0>         0.0000
     21 O3          3.2186   -1.5159    0.7230 O.3       1 <0>         0.0000
     22 S1         -2.0492    2.4644    0.7791 S.3       1 <0>         0.0000
     23 Cl1         4.4064   -4.8856    9.6833 Cl        1 <0>         0.0000
     24 H1          0.5376   -1.9787    9.2631 H         1 <0>         0.0000
     25 H2          1.0086   -1.4100    6.9061 H         1 <0>         0.0000
     26 H3          2.0273   -3.5102   10.4987 H         1 <0>         0.0000
     27 H4          4.5022   -3.9233    6.9958 H         1 <0>         0.0000
     28 H5         -4.2705    3.0197    2.6246 H         1 <0>         0.0000
     29 H6         -4.0763    1.7229    3.8059 H         1 <0>         0.0000
     30 H7         -2.7806    2.9152    3.5690 H         1 <0>         0.0000
     31 H8         -4.7543    1.3108    0.7855 H         1 <0>         0.0000
     32 H9         -4.5673   -0.0125    1.9385 H         1 <0>         0.0000
     33 H10        -3.6015    0.0146    0.4477 H         1 <0>         0.0000
     34 H11        -0.1531    0.5335    1.9082 H         1 <0>         0.0000
     35 H12         0.7975    1.7493    1.0822 H         1 <0>         0.0000
     36 H13        -1.6176    0.2727   -0.0585 H         1 <0>         0.0000
     37 H14        -0.7009    1.4813   -0.9501 H         1 <0>         0.0000
     38 H15         2.9484    0.3859    1.4229 H         1 <0>         0.0000
     39 H16         0.5915   -1.2082    0.2610 H         1 <0>         0.0000
     40 H17        -2.2253    0.7496    2.4190 H         1 <0>         0.0000
     41 H18         0.8845    0.1717   -1.5934 H         1 <0>         0.0000
     42 H19         2.2416   -0.6802   -1.2969 H         1 <0>         0.0000
     43 H20         2.0849   -0.4638    5.5841 H         1 <0>         0.0000
     44 H21         3.6858   -0.1599    3.4266 H         1 <0>         0.0000
     45 H22         2.7041   -2.3378    0.6655 H         1 <0>         0.0000
@<TRIPOS>BOND
     1    1    2 ar
     2    1    3 ar
     3    2    5 ar
     4    3    6 ar
     5    4    5 ar
     6    4    6 ar
     7    5    7 1
     8    6   23 1
     9    7   17 am
    10    7   19 2
    11    8   13 1
    12    8   18 am
    13    8   20 2
    14    9   15 1
    15   10   15 1
    16   11   12 1
    17   11   14 1
    18   12   22 1
    19   13   14 1
    20   13   21 1
    21   14   16 1
    22   15   22 1
    23   17   18 1
    24    1   24 1
    25    2   25 1
    26    3   26 1
    27    4   27 1
    28    9   28 1
    29    9   29 1
    30    9   30 1
    31   10   31 1
    32   10   32 1
    33   10   33 1
    34   11   34 1
    35   11   35 1
    36   12   36 1
    37   12   37 1
    38   13   38 1
    39   14   39 1
    40   15   40 1
    41   16   41 1
    42   16   42 1
    43   17   43 1
    44   18   44 1
    45   21   45 1
@<TRIPOS>MOLECULE
LIGAND
   45    45     0     0     0
SMALL
NO_CHARGES

@<TRIPOS>ATOM
      1 C1          0.3537   -1.6987    8.6788 C.ar      1 <0>         0.0000
      2 C2          0.6500   -1.3890    7.3514 C.ar      1 <0>         0.0000
      3 C3         -0.8291   -1.2362    9.2556 C.ar      1 <0>         0.0000
      4 C4         -1.4194   -0.1541    7.1777 C.ar      1 <0>         0.0000
      5 C5         -0.2366   -0.6167    6.6009 C.ar      1 <0>         0.0000
      6 C6         -1.7156   -0.4639    8.5051 C.ar      1 <0>         0.0000
      7 C7          0.0801   -0.2867    5.1871 C.2       1 <0>         0.0000
      8 C8          1.9325   -1.0133    2.6768 C.2       1 <0>         0.0000
      9 C9         -2.9128    0.5416   -2.6174 C.3       1 <0>         0.0000
     10 C10        -2.2142   -0.8878   -4.5691 C.3       1 <0>         0.0000
     11 C11         0.2728   -1.5333    0.1821 C.3       1 <0>         0.0000
     12 C12        -0.9662   -1.3605   -0.7034 C.3       1 <0>         0.0000
     13 C13         2.3649   -0.5352    1.2935 C.3       1 <0>         0.0000
     14 C14         1.1534   -0.2750    0.3710 C.3       1 <0>         0.0000
     15 C15        -2.2483   -0.7595   -3.0509 C.3       1 <0>         0.0000
     16 N1          0.3761    0.8265    0.9508 N.3       1 <0>         0.0000
     17 N2          1.4238   -0.2520    4.8674 N.am      1 <0>         0.0000
     18 N3          1.7877    0.0290    3.5734 N.am      1 <0>         0.0000
     19 O1         -0.8375   -0.0833    4.3961 O.2       1 <0>         0.0000
     20 O2          1.7602   -2.2018    2.9407 O.2       1 <0>         0.0000
     21 O3          3.2186   -1.5159    0.7230 O.3       1 <0>         0.0000
     22 S1         -0.5659   -0.8328   -2.3950 S.3       1 <0>         0.0000
     23 Cl1        -3.1752    0.1061    9.2174 Cl        1 <0>         0.0000
     24 H1          1.0439   -2.3003    9.2628 H         1 <0>         0.0000
     25 H2          1.5748   -1.7550    6.9130 H         1 <0>         0.0000
     26 H3         -1.0465   -1.4855   10.2910 H         1 <0>         0.0000
     27 H4         -2.1094    0.4477    6.5897 H         1 <0>         0.0000
     28 H5         -2.3709    1.4010   -3.0278 H         1 <0>         0.0000
     29 H6         -3.9445    0.6030   -2.9814 H         1 <0>         0.0000
     30 H7         -2.9253    0.6509   -1.5269 H         1 <0>         0.0000
     31 H8         -1.6616   -0.0504   -5.0096 H         1 <0>         0.0000
     32 H9         -3.2242   -0.8708   -4.9935 H         1 <0>         0.0000
     33 H10        -1.7214   -1.8125   -4.8903 H         1 <0>         0.0000
     34 H11         0.8786   -2.3375   -0.2566 H         1 <0>         0.0000
     35 H12        -0.0491   -1.9048    1.1634 H         1 <0>         0.0000
     36 H13        -1.6137   -0.5937   -0.2651 H         1 <0>         0.0000
     37 H14        -1.5515   -2.2833   -0.7522 H         1 <0>         0.0000
     38 H15         2.9484    0.3859    1.4229 H         1 <0>         0.0000
     39 H16         1.5222    0.0640   -0.6025 H         1 <0>         0.0000
     40 H17        -2.8042   -1.6046   -2.6310 H         1 <0>         0.0000
     41 H18        -0.3732    1.0655    0.3105 H         1 <0>         0.0000
     42 H19         0.9747    1.6420    1.0220 H         1 <0>         0.0000
     43 H20         2.1281   -0.4306    5.5750 H         1 <0>         0.0000
     44 H21         1.9478    0.9869    3.2798 H         1 <0>         0.0000
     45 H22         2.7041   -2.3378    0.6655 H         1 <0>         0.0000
@<TRIPOS>BOND
     1    1    2 ar
     2    1    3 ar
     3    2    5 ar
     4    3    6 ar
     5    4    5 ar
     6    4    6 ar
     7    5    7 1
     8    6   23 1
     9    7   17 am
    10    7   19 2
    11    8   13 1
    12    8   18 am
    13    8   20 2
    14    9   15 1
    15   10   15 1
    16   11   12 1
    17   11   14 1
    18   12   22 1
    19   13   14 1
    20   13   21 1
    21   14   16 1
    22   15   22 1
    23   17   18 1
    24    1   24 1
    25    2   25 1
    26    3   26 1
    27    4   27 1
    28    9   28 1
    29    9   29 1
    30    9   30 1
    31   10   31 1
    32   10   32 1
    33   10   33 1
    34   11   34 1
    35   11   35 1
    36   12   36 1
    37   12   37 1
    38   13   38 1
    39   14   39 1
    40   15   40 1
    41   16   41 1
    42   16   42 1
    43   17   43 1
    44   18   44 1
    45   21   45 1
@<TRIPOS>MOLECULE
LIGAND
   45    45     0     0     0
SMALL
NO_CHARGES

@<TRIPOS>ATOM
      1 C1          3.9068   -1.8228    9.5212 C.ar      1 <0>         0.0000
      2 C2          4.2280   -1.4546    8.2148 C.ar      1 <0>         0.0000
      3 C3          2.6909   -2.4514    9.7897 C.ar      1 <0>         0.0000
      4 C4          2.1173   -2.3434    7.4453 C.ar      1 <0>         0.0000
      5 C5          3.3333   -1.7148    7.1768 C.ar      1 <0>         0.0000
      6 C6          1.7961   -2.7117    8.7518 C.ar      1 <0>         0.0000
      7 C7          3.6760   -1.3216    5.7855 C.2       1 <0>         0.0000
      8 C8          1.9325   -1.0133    2.6768 C.2       1 <0>         0.0000
      9 C9         -4.0383    1.9882   -1.0273 C.3       1 <0>         0.0000
     10 C10        -3.4456    4.3900   -0.5583 C.3       1 <0>         0.0000
     11 C11         0.2195    0.8307    0.9188 C.3       1 <0>         0.0000
     12 C12        -1.0001    1.1700    0.0549 C.3       1 <0>         0.0000
     13 C13         2.3649   -0.5352    1.2935 C.3       1 <0>         0.0000
     14 C14         1.1534   -0.2750    0.3710 C.3       1 <0>         0.0000
     15 C15        -2.9141    2.9715   -0.7245 C.3       1 <0>         0.0000
     16 N1          1.6681    0.0834   -0.9557 N.3       1 <0>         0.0000
     17 N2          2.6023   -1.0670    4.9540 N.am      1 <0>         0.0000
     18 N3          2.8469   -0.6810    3.6590 N.am      1 <0>         0.0000
     19 O1          4.8567   -1.2304    5.4589 O.2       1 <0>         0.0000
     20 O2          0.8915   -1.6405    2.8632 O.2       1 <0>         0.0000
     21 O3          3.2186   -1.5159    0.7230 O.3       1 <0>         0.0000
     22 S1         -2.0492    2.4644    0.7791 S.3       1 <0>         0.0000
     23 Cl1         0.2961   -3.4877    9.0838 Cl        1 <0>         0.0000
     24 H1          4.6037   -1.6204   10.3291 H         1 <0>         0.0000
     25 H2          5.1785   -0.9653    8.0180 H         1 <0>         0.0000
     26 H3          2.4542   -2.7326   10.8127 H         1 <0>         0.0000
     27 H4          1.4214   -2.5457    6.6335 H         1 <0>         0.0000
     28 H5         -4.7755    1.9915   -0.2167 H         1 <0>         0.0000
     29 H6         -4.5662    2.2576   -1.9489 H         1 <0>         0.0000
     30 H7         -3.6673    0.9620   -1.1303 H         1 <0>         0.0000
     31 H8         -4.1737    4.4304    0.2595 H         1 <0>         0.0000
     32 H9         -3.9550    4.7339   -1.4654 H         1 <0>         0.0000
     33 H10        -2.6458    5.1012   -0.3221 H         1 <0>         0.0000
     34 H11        -0.1531    0.5335    1.9082 H         1 <0>         0.0000
     35 H12         0.7975    1.7493    1.0822 H         1 <0>         0.0000
     36 H13        -1.6176    0.2727   -0.0585 H         1 <0>         0.0000
     37 H14        -0.7009    1.4813   -0.9501 H         1 <0>         0.0000
     38 H15         2.9484    0.3859    1.4229 H         1 <0>         0.0000
     39 H16         0.5915   -1.2082    0.2610 H         1 <0>         0.0000
     40 H17        -2.1892    2.9529   -1.5453 H         1 <0>         0.0000
     41 H18         0.8845    0.1717   -1.5934 H         1 <0>         0.0000
     42 H19         2.2416   -0.6802   -1.2969 H         1 <0>         0.0000
     43 H20         1.6516   -1.1634    5.2936 H         1 <0>         0.0000
     44 H21         3.6858   -0.1599    3.4266 H         1 <0>         0.0000
     45 H22         2.7041   -2.3378    0.6655 H         1 <0>         0.0000
@<TRIPOS>BOND
     1    1    2 ar
     2    1    3 ar
     3    2    5 ar
     4    3    6 ar
     5    4    5 ar
     6    4    6 ar
     7    5    7 1
     8    6   23 1
     9    7   17 am
    10    7   19 2
    11    8   13 1
    12    8   18 am
    13    8   20 2
    14    9   15 1
    15   10   15 1
    16   11   12 1
    17   11   14 1
    18   12   22 1
    19   13   14 1
    20   13   21 1
    21   14   16 1
    22   15   22 1
    23   17   18 1
    24    1   24 1
    25    2   25 1
    26    3   26 1
    27    4   27 1
    28    9   28 1
    29    9   29 1
    30    9   30 1
    31   10   31 1
    32   10   32 1
    33   10   33 1
    34   11   34 1
    35   11   35 1
    36   12   36 1
    37   12   37 1
    38   13   38 1
    39   14   39 1
    40   15   40 1
    41   16   41 1
    42   16   42 1
    43   17   43 1
    44   18   44 1
    45   21   45 1
@<TRIPOS>MOLECULE
LIGAND
   45    45     0     0     0
SMALL
NO_CHARGES

@<TRIPOS>ATOM
      1 C1         -0.2959   -1.7283    8.4655 C.ar      1 <0>         0.0000
      2 C2          0.0807   -1.4558    7.1504 C.ar      1 <0>         0.0000
      3 C3         -1.6473   -1.8121    8.8008 C.ar      1 <0>         0.0000
      4 C4         -2.2454   -1.3505    6.5060 C.ar      1 <0>         0.0000
      5 C5         -0.8940   -1.2668    6.1707 C.ar      1 <0>         0.0000
      6 C6         -2.6221   -1.6232    7.8211 C.ar      1 <0>         0.0000
      7 C7         -0.4919   -0.9759    4.7701 C.2       1 <0>         0.0000
      8 C8          1.9325   -1.0133    2.6768 C.2       1 <0>         0.0000
      9 C9         -0.4527    2.0643   -5.6954 C.3       1 <0>         0.0000
     10 C10        -1.1282   -0.2129   -4.8599 C.3       1 <0>         0.0000
     11 C11         1.5761    0.1765   -1.0474 C.3       1 <0>         0.0000
     12 C12         0.4360    0.4372   -2.0380 C.3       1 <0>         0.0000
     13 C13         2.3649   -0.5352    1.2935 C.3       1 <0>         0.0000
     14 C14         1.1534   -0.2750    0.3710 C.3       1 <0>         0.0000
     15 C15        -0.5876    1.1594   -4.4766 C.3       1 <0>         0.0000
     16 N1          0.3597   -1.5080    0.3138 N.3       1 <0>         0.0000
     17 N2          0.7320   -0.3536    4.6161 N.am      1 <0>         0.0000
     18 N3          1.1743   -0.0714    3.3469 N.am      1 <0>         0.0000
     19 O1         -1.2351   -1.3059    3.8493 O.2       1 <0>         0.0000
     20 O2          2.2555   -2.1109    3.1269 O.2       1 <0>         0.0000
     21 O3          3.2186   -1.5159    0.7230 O.3       1 <0>         0.0000
     22 S1          1.0200    0.9781   -3.6711 S.3       1 <0>         0.0000
     23 Cl1        -4.2894   -1.7271    8.2355 Cl        1 <0>         0.0000
     24 H1          0.4631   -1.8757    9.2280 H         1 <0>         0.0000
     25 H2          1.1369   -1.3929    6.9013 H         1 <0>         0.0000
     26 H3         -1.9258   -2.0251    9.8297 H         1 <0>         0.0000
     27 H4         -3.0036   -1.2033    5.7395 H         1 <0>         0.0000
     28 H5          0.2251    1.6152   -6.4298 H         1 <0>         0.0000
     29 H6         -1.4187    2.2120   -6.1912 H         1 <0>         0.0000
     30 H7         -0.0471    3.0477   -5.4316 H         1 <0>         0.0000
     31 H8         -0.4607   -0.6971   -5.5815 H         1 <0>         0.0000
     32 H9         -2.1151   -0.1359   -5.3296 H         1 <0>         0.0000
     33 H10        -1.2112   -0.8767   -3.9917 H         1 <0>         0.0000
     34 H11         2.1631    1.1018   -0.9736 H         1 <0>         0.0000
     35 H12         2.2520   -0.5707   -1.4824 H         1 <0>         0.0000
     36 H13        -0.2073    1.2295   -1.6408 H         1 <0>         0.0000
     37 H14        -0.1907   -0.4501   -2.1649 H         1 <0>         0.0000
     38 H15         2.9484    0.3859    1.4229 H         1 <0>         0.0000
     39 H16         0.5249    0.4957    0.8291 H         1 <0>         0.0000
     40 H17        -1.2679    1.6256   -3.7560 H         1 <0>         0.0000
     41 H18        -0.4842   -1.3249   -0.2178 H         1 <0>         0.0000
     42 H19         0.0690   -1.7492    1.2550 H         1 <0>         0.0000
     43 H20         1.2931   -0.1098    5.4249 H         1 <0>         0.0000
     44 H21         0.9480    0.8148    2.9078 H         1 <0>         0.0000
     45 H22         2.7041   -2.3378    0.6655 H         1 <0>         0.0000
@<TRIPOS>BOND
     1    1    2 ar
     2    1    3 ar
     3    2    5 ar
     4    3    6 ar
     5    4    5 ar
     6    4    6 ar
     7    5    7 1
     8    6   23 1
     9    7   17 am
    10    7   19 2
    11    8   13 1
    12    8   18 am
    13    8   20 2
    14    9   15 1
    15   10   15 1
    16   11   12 1
    17   11   14 1
    18   12   22 1
    19   13   14 1
    20   13   21 1
    21   14   16 1
    22   15   22 1
    23   17   18 1
    24    1   24 1
    25    2   25 1
    26    3   26 1
    27    4   27 1
    28    9   28 1
    29    9   29 1
    30    9   30 1
    31   10   31 1
    32   10   32 1
    33   10   33 1
    34   11   34 1
    35   11   35 1
    36   12   36 1
    37   12   37 1
    38   13   38 1
    39   14   39 1
    40   15   40 1
    41   16   41 1
    42   16   42 1
    43   17   43 1
    44   18   44 1
    45   21   45 1
@<TRIPOS>MOLECULE
LIGAND
   45    45     0     0     0
SMALL
NO_CHARGES

@<TRIPOS>ATOM
      1 C1         -0.5153   -4.0016    7.6155 C.ar      1 <0>         0.0000
      2 C2         -0.0816   -3.4032    6.4326 C.ar      1 <0>         0.0000
      3 C3         -1.8803   -4.1197    7.8777 C.ar      1 <0>         0.0000
      4 C4         -2.3777   -3.0408    5.7741 C.ar      1 <0>         0.0000
      5 C5         -1.0128   -2.9227    5.5119 C.ar      1 <0>         0.0000
      6 C6         -2.8114   -3.6393    6.9570 C.ar      1 <0>         0.0000
      7 C7         -0.5498   -2.2848    4.2523 C.2       1 <0>         0.0000
      8 C8          1.9325   -1.0133    2.6768 C.2       1 <0>         0.0000
      9 C9          0.9992    5.4655    0.4702 C.3       1 <0>         0.0000
     10 C10         0.2949    5.8734    2.8530 C.3       1 <0>         0.0000
     11 C11         0.2195    0.8307    0.9188 C.3       1 <0>         0.0000
     12 C12         0.8590    2.2074    1.1305 C.3       1 <0>         0.0000
     13 C13         2.3649   -0.5352    1.2935 C.3       1 <0>         0.0000
     14 C14         1.1534   -0.2750    0.3710 C.3       1 <0>         0.0000
     15 C15         0.8241    4.8515    1.8540 C.3       1 <0>         0.0000
     16 N1          1.6681    0.0834   -0.9557 N.3       1 <0>         0.0000
     17 N2          0.6851   -2.6985    3.7909 N.am      1 <0>         0.0000
     18 N3          1.1665   -2.1628    2.6216 N.am      1 <0>         0.0000
     19 O1         -1.2703   -1.4609    3.6944 O.2       1 <0>         0.0000
     20 O2          2.2299   -0.4108    3.7066 O.2       1 <0>         0.0000
     21 O3          3.2186   -1.5159    0.7230 O.3       1 <0>         0.0000
     22 S1         -0.3102    3.4478    1.7590 S.3       1 <0>         0.0000
     23 Cl1        -4.4955   -3.7857    7.2810 Cl        1 <0>         0.0000
     24 H1          0.2098   -4.3759    8.3321 H         1 <0>         0.0000
     25 H2          0.9846   -3.3169    6.2396 H         1 <0>         0.0000
     26 H3         -2.2034   -4.5883    8.8037 H         1 <0>         0.0000
     27 H4         -3.1019   -2.6655    5.0538 H         1 <0>         0.0000
     28 H5          0.0422    5.8509    0.1009 H         1 <0>         0.0000
     29 H6          1.7019    6.3059    0.4928 H         1 <0>         0.0000
     30 H7          1.3622    4.7326   -0.2594 H         1 <0>         0.0000
     31 H8         -0.6729    6.2651    2.5204 H         1 <0>         0.0000
     32 H9          0.9758    6.7263    2.9496 H         1 <0>         0.0000
     33 H10         0.1486    5.4355    3.8470 H         1 <0>         0.0000
     34 H11        -0.6259    0.9652    0.2307 H         1 <0>         0.0000
     35 H12        -0.2197    0.5004    1.8688 H         1 <0>         0.0000
     36 H13         1.2423    2.5738    0.1722 H         1 <0>         0.0000
     37 H14         1.7108    2.1489    1.8142 H         1 <0>         0.0000
     38 H15         2.9484    0.3859    1.4229 H         1 <0>         0.0000
     39 H16         0.5915   -1.2082    0.2610 H         1 <0>         0.0000
     40 H17         1.7903    4.4730    2.2043 H         1 <0>         0.0000
     41 H18         0.8845    0.1717   -1.5934 H         1 <0>         0.0000
     42 H19         2.2416   -0.6802   -1.2969 H         1 <0>         0.0000
     43 H20         1.2257   -3.3847    4.3060 H         1 <0>         0.0000
     44 H21         0.9630   -2.6038    1.7309 H         1 <0>         0.0000
     45 H22         2.7041   -2.3378    0.6655 H         1 <0>         0.0000
@<TRIPOS>BOND
     1    1    2 ar
     2    1    3 ar
     3    2    5 ar
     4    3    6 ar
     5    4    5 ar
     6    4    6 ar
     7    5    7 1
     8    6   23 1
     9    7   17 am
    10    7   19 2
    11    8   13 1
    12    8   18 am
    13    8   20 2
    14    9   15 1
    15   10   15 1
    16   11   12 1
    17   11   14 1
    18   12   22 1
    19   13   14 1
    20   13   21 1
    21   14   16 1
    22   15   22 1
    23   17   18 1
    24    1   24 1
    25    2   25 1
    26    3   26 1
    27    4   27 1
    28    9   28 1
    29    9   29 1
    30    9   30 1
    31   10   31 1
    32   10   32 1
    33   10   33 1
    34   11   34 1
    35   11   35 1
    36   12   36 1
    37   12   37 1
    38   13   38 1
    39   14   39 1
    40   15   40 1
    41   16   41 1
    42   16   42 1
    43   17   43 1
    44   18   44 1
    45   21   45 1
@<TRIPOS>MOLECULE
LIGAND
   45    45     0     0     0
SMALL
NO_CHARGES

@<TRIPOS>ATOM
      1 C1         -0.9982   -4.7984    7.0345 C.ar      1 <0>         0.0000
      2 C2         -0.5646   -4.1991    5.8520 C.ar      1 <0>         0.0000
      3 C3         -1.8801   -4.1214    7.8770 C.ar      1 <0>         0.0000
      4 C4         -1.8946   -2.2457    6.3543 C.ar      1 <0>         0.0000
      5 C5         -1.0128   -2.9227    5.5119 C.ar      1 <0>         0.0000
      6 C6         -2.3282   -2.8450    7.5369 C.ar      1 <0>         0.0000
      7 C7         -0.5498   -2.2848    4.2523 C.2       1 <0>         0.0000
      8 C8          1.9325   -1.0133    2.6768 C.2       1 <0>         0.0000
      9 C9          0.9992    5.4655    0.4702 C.3       1 <0>         0.0000
     10 C10         0.2949    5.8734    2.8530 C.3       1 <0>         0.0000
     11 C11         0.2195    0.8307    0.9188 C.3       1 <0>         0.0000
     12 C12         0.8590    2.2074    1.1305 C.3       1 <0>         0.0000
     13 C13         2.3649   -0.5352    1.2935 C.3       1 <0>         0.0000
     14 C14         1.1534   -0.2750    0.3710 C.3       1 <0>         0.0000
     15 C15         0.8241    4.8515    1.8540 C.3       1 <0>         0.0000
     16 N1          1.6681    0.0834   -0.9557 N.3       1 <0>         0.0000
     17 N2          0.6851   -2.6985    3.7909 N.am      1 <0>         0.0000
     18 N3          1.1665   -2.1628    2.6216 N.am      1 <0>         0.0000
     19 O1         -1.2703   -1.4609    3.6944 O.2       1 <0>         0.0000
     20 O2          2.2299   -0.4108    3.7066 O.2       1 <0>         0.0000
     21 O3          3.2186   -1.5159    0.7230 O.3       1 <0>         0.0000
     22 S1         -0.3102    3.4478    1.7590 S.3       1 <0>         0.0000
     23 Cl1        -3.4168   -2.0104    8.5766 Cl        1 <0>         0.0000
     24 H1         -0.6495   -5.7923    7.2990 H         1 <0>         0.0000
     25 H2          0.1227   -4.7366    5.2037 H         1 <0>         0.0000
     26 H3         -2.2094   -4.6010    8.7951 H         1 <0>         0.0000
     27 H4         -2.2430   -1.2503    6.0862 H         1 <0>         0.0000
     28 H5          0.0422    5.8509    0.1009 H         1 <0>         0.0000
     29 H6          1.7019    6.3059    0.4928 H         1 <0>         0.0000
     30 H7          1.3622    4.7326   -0.2594 H         1 <0>         0.0000
     31 H8         -0.6729    6.2651    2.5204 H         1 <0>         0.0000
     32 H9          0.9758    6.7263    2.9496 H         1 <0>         0.0000
     33 H10         0.1486    5.4355    3.8470 H         1 <0>         0.0000
     34 H11        -0.6259    0.9652    0.2307 H         1 <0>         0.0000
     35 H12        -0.2197    0.5004    1.8688 H         1 <0>         0.0000
     36 H13         1.2423    2.5738    0.1722 H         1 <0>         0.0000
     37 H14         1.7108    2.1489    1.8142 H         1 <0>         0.0000
     38 H15         2.9484    0.3859    1.4229 H         1 <0>         0.0000
     39 H16         0.5915   -1.2082    0.2610 H         1 <0>         0.0000
     40 H17         1.7903    4.4730    2.2043 H         1 <0>         0.0000
     41 H18         0.8845    0.1717   -1.5934 H         1 <0>         0.0000
     42 H19         2.2416   -0.6802   -1.2969 H         1 <0>         0.0000
     43 H20         1.2257   -3.3847    4.3060 H         1 <0>         0.0000
     44 H21         0.9630   -2.6038    1.7309 H         1 <0>         0.0000
     45 H22         2.7041   -2.3378    0.6655 H         1 <0>         0.0000
@<TRIPOS>BOND
     1    1    2 ar
     2    1    3 ar
     3    2    5 ar
     4    3    6 ar
     5    4    5 ar
     6    4    6 ar
     7    5    7 1
     8    6   23 1
     9    7   17 am
    10    7   19 2
    11    8   13 1
    12    8   18 am
    13    8   20 2
    14    9   15 1
    15   10   15 1
    16   11   12 1
    17   11   14 1
    18   12   22 1
    19   13   14 1
    20   13   21 1
    21   14   16 1
    22   15   22 1
    23   17   18 1
    24    1   24 1
    25    2   25 1
    26    3   26 1
    27    4   27 1
    28    9   28 1
    29    9   29 1
    30    9   30 1
    31   10   31 1
    32   10   32 1
    33   10   33 1
    34   11   34 1
    35   11   35 1
    36   12   36 1
    37   12   37 1
    38   13   38 1
    39   14   39 1
    40   15   40 1
    41   16   41 1
    42   16   42 1
    43   17   43 1
    44   18   44 1
    45   21   45 1
@<TRIPOS>MOLECULE
LIGAND
   45    45     0     0     0
SMALL
NO_CHARGES

@<TRIPOS>ATOM
      1 C1          3.8916   -2.8784    9.2192 C.ar      1 <0>         0.0000
      2 C2          4.2123   -2.5093    7.9128 C.ar      1 <0>         0.0000
      3 C3          2.6918   -2.4530    9.7895 C.ar      1 <0>         0.0000
      4 C4          2.1335   -1.2894    7.7472 C.ar      1 <0>         0.0000
      5 C5          3.3333   -1.7148    7.1768 C.ar      1 <0>         0.0000
      6 C6          1.8128   -1.6585    9.0535 C.ar      1 <0>         0.0000
      7 C7          3.6760   -1.3216    5.7855 C.2       1 <0>         0.0000
      8 C8          1.9325   -1.0133    2.6768 C.2       1 <0>         0.0000
      9 C9         -4.0383    1.9882   -1.0273 C.3       1 <0>         0.0000
     10 C10        -3.4456    4.3900   -0.5583 C.3       1 <0>         0.0000
     11 C11         0.2195    0.8307    0.9188 C.3       1 <0>         0.0000
     12 C12        -1.0001    1.1700    0.0549 C.3       1 <0>         0.0000
     13 C13         2.3649   -0.5352    1.2935 C.3       1 <0>         0.0000
     14 C14         1.1534   -0.2750    0.3710 C.3       1 <0>         0.0000
     15 C15        -2.9141    2.9715   -0.7245 C.3       1 <0>         0.0000
     16 N1          1.6681    0.0834   -0.9557 N.3       1 <0>         0.0000
     17 N2          2.6023   -1.0670    4.9540 N.am      1 <0>         0.0000
     18 N3          2.8469   -0.6810    3.6590 N.am      1 <0>         0.0000
     19 O1          4.8567   -1.2304    5.4589 O.2       1 <0>         0.0000
     20 O2          0.8915   -1.6405    2.8632 O.2       1 <0>         0.0000
     21 O3          3.2186   -1.5159    0.7230 O.3       1 <0>         0.0000
     22 S1         -2.0492    2.4644    0.7791 S.3       1 <0>         0.0000
     23 Cl1         0.3323   -1.1343    9.7578 Cl        1 <0>         0.0000
     24 H1          4.5760   -3.4972    9.7919 H         1 <0>         0.0000
     25 H2          5.1502   -2.8469    7.4793 H         1 <0>         0.0000
     26 H3          2.4554   -2.7484   10.8085 H         1 <0>         0.0000
     27 H4          1.4494   -0.6701    7.1704 H         1 <0>         0.0000
     28 H5         -4.7755    1.9915   -0.2167 H         1 <0>         0.0000
     29 H6         -4.5662    2.2576   -1.9489 H         1 <0>         0.0000
     30 H7         -3.6673    0.9620   -1.1303 H         1 <0>         0.0000
     31 H8         -4.1737    4.4304    0.2595 H         1 <0>         0.0000
     32 H9         -3.9550    4.7339   -1.4654 H         1 <0>         0.0000
     33 H10        -2.6458    5.1012   -0.3221 H         1 <0>         0.0000
     34 H11        -0.1531    0.5335    1.9082 H         1 <0>         0.0000
     35 H12         0.7975    1.7493    1.0822 H         1 <0>         0.0000
     36 H13        -1.6176    0.2727   -0.0585 H         1 <0>         0.0000
     37 H14        -0.7009    1.4813   -0.9501 H         1 <0>         0.0000
     38 H15         2.9484    0.3859    1.4229 H         1 <0>         0.0000
     39 H16         0.5915   -1.2082    0.2610 H         1 <0>         0.0000
     40 H17        -2.1892    2.9529   -1.5453 H         1 <0>         0.0000
     41 H18         0.8845    0.1717   -1.5934 H         1 <0>         0.0000
     42 H19         2.2416   -0.6802   -1.2969 H         1 <0>         0.0000
     43 H20         1.6516   -1.1634    5.2936 H         1 <0>         0.0000
     44 H21         3.6858   -0.1599    3.4266 H         1 <0>         0.0000
     45 H22         2.7041   -2.3378    0.6655 H         1 <0>         0.0000
@<TRIPOS>BOND
     1    1    2 ar
     2    1    3 ar
     3    2    5 ar
     4    3    6 ar
     5    4    5 ar
     6    4    6 ar
     7    5    7 1
     8    6   23 1
     9    7   17 am
    10    7   19 2
    11    8   13 1
    12    8   18 am
    13    8   20 2
    14    9   15 1
    15   10   15 1
    16   11   12 1
    17   11   14 1
    18   12   22 1
    19   13   14 1
    20   13   21 1
    21   14   16 1
    22   15   22 1
    23   17   18 1
    24    1   24 1
    25    2   25 1
    26    3   26 1
    27    4   27 1
    28    9   28 1
    29    9   29 1
    30    9   30 1
    31   10   31 1
    32   10   32 1
    33   10   33 1
    34   11   34 1
    35   11   35 1
    36   12   36 1
    37   12   37 1
    38   13   38 1
    39   14   39 1
    40   15   40 1
    41   16   41 1
    42   16   42 1
    43   17   43 1
    44   18   44 1
    45   21   45 1
@<TRIPOS>MOLECULE
LIGAND
   45    45     0     0     0
SMALL
NO_CHARGES

@<TRIPOS>ATOM
      1 C1          1.4050   -2.4049    8.7677 C.ar      1 <0>         0.0000
      2 C2          1.6744   -2.0859    7.4368 C.ar      1 <0>         0.0000
      3 C3          2.2499   -3.2707    9.4621 C.ar      1 <0>         0.0000
      4 C4          3.6334   -3.4986    7.4947 C.ar      1 <0>         0.0000
      5 C5          2.7886   -2.6327    6.8003 C.ar      1 <0>         0.0000
      6 C6          3.3641   -3.8176    8.8256 C.ar      1 <0>         0.0000
      7 C7          3.0744   -2.2928    5.3823 C.2       1 <0>         0.0000
      8 C8          1.9325   -1.0133    2.6768 C.2       1 <0>         0.0000
      9 C9         -2.4695    4.5098    0.4722 C.3       1 <0>         0.0000
     10 C10        -0.2177    4.7761   -0.6229 C.3       1 <0>         0.0000
     11 C11         0.2195    0.8307    0.9188 C.3       1 <0>         0.0000
     12 C12         0.8590    2.2074    1.1305 C.3       1 <0>         0.0000
     13 C13         2.3649   -0.5352    1.2935 C.3       1 <0>         0.0000
     14 C14         1.1534   -0.2750    0.3710 C.3       1 <0>         0.0000
     15 C15        -1.1189    3.8600    0.1963 C.3       1 <0>         0.0000
     16 N1          1.6681    0.0834   -0.9557 N.3       1 <0>         0.0000
     17 N2          2.6023   -1.0670    4.9540 N.am      1 <0>         0.0000
     18 N3          2.8469   -0.6810    3.6590 N.am      1 <0>         0.0000
     19 O1          3.7083   -3.0847    4.6892 O.2       1 <0>         0.0000
     20 O2          0.8915   -1.6405    2.8632 O.2       1 <0>         0.0000
     21 O3          3.2186   -1.5159    0.7230 O.3       1 <0>         0.0000
     22 S1         -0.3102    3.4478    1.7590 S.3       1 <0>         0.0000
     23 Cl1         4.4064   -4.8856    9.6833 Cl        1 <0>         0.0000
     24 H1          0.5376   -1.9787    9.2631 H         1 <0>         0.0000
     25 H2          1.0086   -1.4100    6.9061 H         1 <0>         0.0000
     26 H3          2.0273   -3.5102   10.4987 H         1 <0>         0.0000
     27 H4          4.5022   -3.9233    6.9958 H         1 <0>         0.0000
     28 H5         -2.3352    5.4486    1.0211 H         1 <0>         0.0000
     29 H6         -2.9944    4.7495   -0.4593 H         1 <0>         0.0000
     30 H7         -3.1176    3.8651    1.0767 H         1 <0>         0.0000
     31 H8         -0.0488    5.7190   -0.0908 H         1 <0>         0.0000
     32 H9         -0.6728    5.0239   -1.5883 H         1 <0>         0.0000
     33 H10         0.7629    4.3240   -0.8105 H         1 <0>         0.0000
     34 H11        -0.6259    0.9652    0.2307 H         1 <0>         0.0000
     35 H12        -0.2197    0.5004    1.8688 H         1 <0>         0.0000
     36 H13         1.2423    2.5738    0.1722 H         1 <0>         0.0000
     37 H14         1.7108    2.1489    1.8142 H         1 <0>         0.0000
     38 H15         2.9484    0.3859    1.4229 H         1 <0>         0.0000
     39 H16         0.5915   -1.2082    0.2610 H         1 <0>         0.0000
     40 H17        -1.2750    2.9249   -0.3521 H         1 <0>         0.0000
     41 H18         0.8845    0.1717   -1.5934 H         1 <0>         0.0000
     42 H19         2.2416   -0.6802   -1.2969 H         1 <0>         0.0000
     43 H20         2.0849   -0.4638    5.5841 H         1 <0>         0.0000
     44 H21         3.6858   -0.1599    3.4266 H         1 <0>         0.0000
     45 H22         2.7041   -2.3378    0.6655 H         1 <0>         0.0000
@<TRIPOS>BOND
     1    1    2 ar
     2    1    3 ar
     3    2    5 ar
     4    3    6 ar
     5    4    5 ar
     6    4    6 ar
     7    5    7 1
     8    6   23 1
     9    7   17 am
    10    7   19 2
    11    8   13 1
    12    8   18 am
    13    8   20 2
    14    9   15 1
    15   10   15 1
    16   11   12 1
    17   11   14 1
    18   12   22 1
    19   13   14 1
    20   13   21 1
    21   14   16 1
    22   15   22 1
    23   17   18 1
    24    1   24 1
    25    2   25 1
    26    3   26 1
    27    4   27 1
    28    9   28 1
    29    9   29 1
    30    9   30 1
    31   10   31 1
    32   10   32 1
    33   10   33 1
    34   11   34 1
    35   11   35 1
    36   12   36 1
    37   12   37 1
    38   13   38 1
    39   14   39 1
    40   15   40 1
    41   16   41 1
    42   16   42 1
    43   17   43 1
    44   18   44 1
    45   21   45 1
@<TRIPOS>MOLECULE
LIGAND
   45    45     0     0     0
SMALL
NO_CHARGES

@<TRIPOS>ATOM
      1 C1          0.3862   -0.6315    8.9351 C.ar      1 <0>         0.0000
      2 C2          0.6829   -0.3226    7.6077 C.ar      1 <0>         0.0000
      3 C3         -0.8301   -1.2346    9.2558 C.ar      1 <0>         0.0000
      4 C4         -1.4528   -1.2197    6.9215 C.ar      1 <0>         0.0000
      5 C5         -0.2366   -0.6167    6.6009 C.ar      1 <0>         0.0000
      6 C6         -1.7496   -1.5286    8.2490 C.ar      1 <0>         0.0000
      7 C7          0.0801   -0.2867    5.1871 C.2       1 <0>         0.0000
      8 C8          1.9325   -1.0133    2.6768 C.2       1 <0>         0.0000
      9 C9         -3.9971   -1.8615    0.5747 C.3       1 <0>         0.0000
     10 C10        -3.2820   -4.2232    1.0762 C.3       1 <0>         0.0000
     11 C11         0.2728   -1.5333    0.1821 C.3       1 <0>         0.0000
     12 C12        -0.9662   -1.3605   -0.7034 C.3       1 <0>         0.0000
     13 C13         2.3649   -0.5352    1.2935 C.3       1 <0>         0.0000
     14 C14         1.1534   -0.2750    0.3710 C.3       1 <0>         0.0000
     15 C15        -2.8207   -2.8235    0.6883 C.3       1 <0>         0.0000
     16 N1          0.3761    0.8265    0.9508 N.3       1 <0>         0.0000
     17 N2          1.4238   -0.2520    4.8674 N.am      1 <0>         0.0000
     18 N3          1.7877    0.0290    3.5734 N.am      1 <0>         0.0000
     19 O1         -0.8375   -0.0833    4.3961 O.2       1 <0>         0.0000
     20 O2          1.7602   -2.2018    2.9407 O.2       1 <0>         0.0000
     21 O3          3.2186   -1.5159    0.7230 O.3       1 <0>         0.0000
     22 S1         -1.9323   -2.8885   -0.8842 S.3       1 <0>         0.0000
     23 Cl1        -3.2499   -2.2732    8.6452 Cl        1 <0>         0.0000
     24 H1          1.1023   -0.4028    9.7188 H         1 <0>         0.0000
     25 H2          1.6339    0.1473    7.3703 H         1 <0>         0.0000
     26 H3         -1.0475   -1.4695   10.2945 H         1 <0>         0.0000
     27 H4         -2.1680   -1.4485    6.1339 H         1 <0>         0.0000
     28 H5         -4.7074   -2.2163   -0.1804 H         1 <0>         0.0000
     29 H6         -4.5413   -1.7835    1.5226 H         1 <0>         0.0000
     30 H7         -3.6763   -0.8564    0.2780 H         1 <0>         0.0000
     31 H8         -3.9813   -4.6143    0.3288 H         1 <0>         0.0000
     32 H9         -3.8039   -4.2184    2.0397 H         1 <0>         0.0000
     33 H10        -2.4439   -4.9263    1.1424 H         1 <0>         0.0000
     34 H11         0.8786   -2.3375   -0.2566 H         1 <0>         0.0000
     35 H12        -0.0491   -1.9048    1.1634 H         1 <0>         0.0000
     36 H13        -0.6485   -1.0529   -1.7052 H         1 <0>         0.0000
     37 H14        -1.6218   -0.5733   -0.3201 H         1 <0>         0.0000
     38 H15         2.9484    0.3859    1.4229 H         1 <0>         0.0000
     39 H16         1.5222    0.0640   -0.6025 H         1 <0>         0.0000
     40 H17        -2.1237   -2.4514    1.4468 H         1 <0>         0.0000
     41 H18        -0.3732    1.0655    0.3105 H         1 <0>         0.0000
     42 H19         0.9747    1.6420    1.0220 H         1 <0>         0.0000
     43 H20         2.1281   -0.4306    5.5750 H         1 <0>         0.0000
     44 H21         1.9478    0.9869    3.2798 H         1 <0>         0.0000
     45 H22         2.7041   -2.3378    0.6655 H         1 <0>         0.0000
@<TRIPOS>BOND
     1    1    2 ar
     2    1    3 ar
     3    2    5 ar
     4    3    6 ar
     5    4    5 ar
     6    4    6 ar
     7    5    7 1
     8    6   23 1
     9    7   17 am
    10    7   19 2
    11    8   13 1
    12    8   18 am
    13    8   20 2
    14    9   15 1
    15   10   15 1
    16   11   12 1
    17   11   14 1
    18   12   22 1
    19   13   14 1
    20   13   21 1
    21   14   16 1
    22   15   22 1
    23   17   18 1
    24    1   24 1
    25    2   25 1
    26    3   26 1
    27    4   27 1
    28    9   28 1
    29    9   29 1
    30    9   30 1
    31   10   31 1
    32   10   32 1
    33   10   33 1
    34   11   34 1
    35   11   35 1
    36   12   36 1
    37   12   37 1
    38   13   38 1
    39   14   39 1
    40   15   40 1
    41   16   41 1
    42   16   42 1
    43   17   43 1
    44   18   44 1
    45   21   45 1
@<TRIPOS>MOLECULE
LIGAND
   45    45     0     0     0
SMALL
NO_CHARGES

@<TRIPOS>ATOM
      1 C1          2.3494   -1.9340    9.0709 C.ar      1 <0>         0.0000
      2 C2          2.6184   -1.6158    7.7398 C.ar      1 <0>         0.0000
      3 C3          2.2507   -3.2692    9.4627 C.ar      1 <0>         0.0000
      4 C4          2.6898   -3.9679    7.1920 C.ar      1 <0>         0.0000
      5 C5          2.7886   -2.6327    6.8003 C.ar      1 <0>         0.0000
      6 C6          2.4209   -4.2860    8.5232 C.ar      1 <0>         0.0000
      7 C7          3.0744   -2.2928    5.3823 C.2       1 <0>         0.0000
      8 C8          1.9325   -1.0133    2.6768 C.2       1 <0>         0.0000
      9 C9         -3.5456    2.3208    3.0565 C.3       1 <0>         0.0000
     10 C10        -4.0220    0.6377    1.2453 C.3       1 <0>         0.0000
     11 C11         0.2195    0.8307    0.9188 C.3       1 <0>         0.0000
     12 C12        -1.0001    1.1700    0.0549 C.3       1 <0>         0.0000
     13 C13         2.3649   -0.5352    1.2935 C.3       1 <0>         0.0000
     14 C14         1.1534   -0.2750    0.3710 C.3       1 <0>         0.0000
     15 C15        -2.9459    1.4397    1.9673 C.3       1 <0>         0.0000
     16 N1          1.6681    0.0834   -0.9557 N.3       1 <0>         0.0000
     17 N2          2.6023   -1.0670    4.9540 N.am      1 <0>         0.0000
     18 N3          2.8469   -0.6810    3.6590 N.am      1 <0>         0.0000
     19 O1          3.7083   -3.0847    4.6892 O.2       1 <0>         0.0000
     20 O2          0.8915   -1.6405    2.8632 O.2       1 <0>         0.0000
     21 O3          3.2186   -1.5159    0.7230 O.3       1 <0>         0.0000
     22 S1         -2.0492    2.4644    0.7791 S.3       1 <0>         0.0000
     23 Cl1         2.2994   -5.9333    9.0073 Cl        1 <0>         0.0000
     24 H1          2.2173   -1.1422    9.8023 H         1 <0>         0.0000
     25 H2          2.6929   -0.5718    7.4466 H         1 <0>         0.0000
     26 H3          2.0407   -3.5019   10.5034 H         1 <0>         0.0000
     27 H4          2.8236   -4.7591    6.4570 H         1 <0>         0.0000
     28 H5         -4.2705    3.0197    2.6246 H         1 <0>         0.0000
     29 H6         -4.0763    1.7229    3.8059 H         1 <0>         0.0000
     30 H7         -2.7806    2.9152    3.5690 H         1 <0>         0.0000
     31 H8         -4.7543    1.3108    0.7855 H         1 <0>         0.0000
     32 H9         -4.5673   -0.0125    1.9385 H         1 <0>         0.0000
     33 H10        -3.6015    0.0146    0.4477 H         1 <0>         0.0000
     34 H11        -0.1531    0.5335    1.9082 H         1 <0>         0.0000
     35 H12         0.7975    1.7493    1.0822 H         1 <0>         0.0000
     36 H13        -1.6176    0.2727   -0.0585 H         1 <0>         0.0000
     37 H14        -0.7009    1.4813   -0.9501 H         1 <0>         0.0000
     38 H15         2.9484    0.3859    1.4229 H         1 <0>         0.0000
     39 H16         0.5915   -1.2082    0.2610 H         1 <0>         0.0000
     40 H17        -2.2253    0.7496    2.4190 H         1 <0>         0.0000
     41 H18         0.8845    0.1717   -1.5934 H         1 <0>         0.0000
     42 H19         2.2416   -0.6802   -1.2969 H         1 <0>         0.0000
     43 H20         2.0849   -0.4638    5.5841 H         1 <0>         0.0000
     44 H21         3.6858   -0.1599    3.4266 H         1 <0>         0.0000
     45 H22         2.7041   -2.3378    0.6655 H         1 <0>         0.0000
@<TRIPOS>BOND
     1    1    2 ar
     2    1    3 ar
     3    2    5 ar
     4    3    6 ar
     5    4    5 ar
     6    4    6 ar
     7    5    7 1
     8    6   23 1
     9    7   17 am
    10    7   19 2
    11    8   13 1
    12    8   18 am
    13    8   20 2
    14    9   15 1
    15   10   15 1
    16   11   12 1
    17   11   14 1
    18   12   22 1
    19   13   14 1
    20   13   21 1
    21   14   16 1
    22   15   22 1
    23   17   18 1
    24    1   24 1
    25    2   25 1
    26    3   26 1
    27    4   27 1
    28    9   28 1
    29    9   29 1
    30    9   30 1
    31   10   31 1
    32   10   32 1
    33   10   33 1
    34   11   34 1
    35   11   35 1
    36   12   36 1
    37   12   37 1
    38   13   38 1
    39   14   39 1
    40   15   40 1
    41   16   41 1
    42   16   42 1
    43   17   43 1
    44   18   44 1
    45   21   45 1
@<TRIPOS>MOLECULE
LIGAND
   45    45     0     0     0
SMALL
NO_CHARGES

@<TRIPOS>ATOM
      1 C1         -2.6332   -0.5024    8.0491 C.ar      1 <0>         0.0000
      2 C2         -2.2347   -0.1578    6.7576 C.ar      1 <0>         0.0000
      3 C3         -1.6781   -0.8523    9.0037 C.ar      1 <0>         0.0000
      4 C4          0.0739   -0.5130    7.3751 C.ar      1 <0>         0.0000
      5 C5         -0.8811   -0.1631    6.4206 C.ar      1 <0>         0.0000
      6 C6         -0.3246   -0.8576    8.6667 C.ar      1 <0>         0.0000
      7 C7         -0.4576    0.2036    5.0443 C.2       1 <0>         0.0000
      8 C8          1.9325   -1.0133    2.6768 C.2       1 <0>         0.0000
      9 C9         -3.4003    1.8811   -1.9325 C.3       1 <0>         0.0000
     10 C10        -1.8862    1.7841   -3.9421 C.3       1 <0>         0.0000
     11 C11         1.5761    0.1765   -1.0474 C.3       1 <0>         0.0000
     12 C12         0.4360    0.4372   -2.0380 C.3       1 <0>         0.0000
     13 C13         2.3649   -0.5352    1.2935 C.3       1 <0>         0.0000
     14 C14         1.1534   -0.2750    0.3710 C.3       1 <0>         0.0000
     15 C15        -2.1244    1.2902   -2.5202 C.3       1 <0>         0.0000
     16 N1          0.3597   -1.5080    0.3138 N.3       1 <0>         0.0000
     17 N2          0.7320   -0.3536    4.6161 N.am      1 <0>         0.0000
     18 N3          1.1743   -0.0714    3.3469 N.am      1 <0>         0.0000
     19 O1         -1.1696    0.9461    4.3728 O.2       1 <0>         0.0000
     20 O2          2.2555   -2.1109    3.1269 O.2       1 <0>         0.0000
     21 O3          3.2186   -1.5159    0.7230 O.3       1 <0>         0.0000
     22 S1         -0.7139    1.7277   -1.4786 S.3       1 <0>         0.0000
     23 Cl1         0.8534   -1.2889    9.8452 Cl        1 <0>         0.0000
     24 H1         -3.6870   -0.4979    8.3114 H         1 <0>         0.0000
     25 H2         -2.9882    0.1130    6.0224 H         1 <0>         0.0000
     26 H3         -2.0036   -1.1185   10.0060 H         1 <0>         0.0000
     27 H4          1.1292   -0.5157    7.1095 H         1 <0>         0.0000
     28 H5         -3.3408    2.9751   -1.9162 H         1 <0>         0.0000
     29 H6         -4.2773    1.6115   -2.5314 H         1 <0>         0.0000
     30 H7         -3.5699    1.5456   -0.9030 H         1 <0>         0.0000
     31 H8         -1.8034    2.8767   -3.9567 H         1 <0>         0.0000
     32 H9         -2.7162    1.5114   -4.6033 H         1 <0>         0.0000
     33 H10        -0.9606    1.3783   -4.3662 H         1 <0>         0.0000
     34 H11         2.1631    1.1018   -0.9736 H         1 <0>         0.0000
     35 H12         2.2520   -0.5707   -1.4824 H         1 <0>         0.0000
     36 H13        -0.1421   -0.4839   -2.1668 H         1 <0>         0.0000
     37 H14         0.8216    0.7132   -3.0237 H         1 <0>         0.0000
     38 H15         2.9484    0.3859    1.4229 H         1 <0>         0.0000
     39 H16         0.5249    0.4957    0.8291 H         1 <0>         0.0000
     40 H17        -2.2041    0.1979   -2.5275 H         1 <0>         0.0000
     41 H18        -0.4842   -1.3249   -0.2178 H         1 <0>         0.0000
     42 H19         0.0690   -1.7492    1.2550 H         1 <0>         0.0000
     43 H20         1.2684   -0.9594    5.2274 H         1 <0>         0.0000
     44 H21         0.9480    0.8148    2.9078 H         1 <0>         0.0000
     45 H22         2.7041   -2.3378    0.6655 H         1 <0>         0.0000
@<TRIPOS>BOND
     1    1    2 ar
     2    1    3 ar
     3    2    5 ar
     4    3    6 ar
     5    4    5 ar
     6    4    6 ar
     7    5    7 1
     8    6   23 1
     9    7   17 am
    10    7   19 2
    11    8   13 1
    12    8   18 am
    13    8   20 2
    14    9   15 1
    15   10   15 1
    16   11   12 1
    17   11   14 1
    18   12   22 1
    19   13   14 1
    20   13   21 1
    21   14   16 1
    22   15   22 1
    23   17   18 1
    24    1   24 1
    25    2   25 1
    26    3   26 1
    27    4   27 1
    28    9   28 1
    29    9   29 1
    30    9   30 1
    31   10   31 1
    32   10   32 1
    33   10   33 1
    34   11   34 1
    35   11   35 1
    36   12   36 1
    37   12   37 1
    38   13   38 1
    39   14   39 1
    40   15   40 1
    41   16   41 1
    42   16   42 1
    43   17   43 1
    44   18   44 1
    45   21   45 1
@<TRIPOS>MOLECULE
LIGAND
   45    45     0     0     0
SMALL
NO_CHARGES

@<TRIPOS>ATOM
      1 C1         -1.1762    0.4854    8.8459 C.ar      1 <0>         0.0000
      2 C2         -0.8244    0.8446    7.5448 C.ar      1 <0>         0.0000
      3 C3         -0.3849   -0.4152    9.5589 C.ar      1 <0>         0.0000
      4 C4          1.1100   -0.5975    7.6697 C.ar      1 <0>         0.0000
      5 C5          0.3186    0.3032    6.9567 C.ar      1 <0>         0.0000
      6 C6          0.7582   -0.9567    8.9708 C.ar      1 <0>         0.0000
      7 C7          0.6923    0.6859    5.5704 C.2       1 <0>         0.0000
      8 C8          1.9325   -1.0133    2.6768 C.2       1 <0>         0.0000
      9 C9         -2.2116    3.9082   -0.1431 C.3       1 <0>         0.0000
     10 C10        -2.4834    4.0365    2.3569 C.3       1 <0>         0.0000
     11 C11        -0.0095    0.4324    1.1072 C.3       1 <0>         0.0000
     12 C12        -1.2475    0.7494    0.2611 C.3       1 <0>         0.0000
     13 C13         2.3649   -0.5352    1.2935 C.3       1 <0>         0.0000
     14 C14         1.1534   -0.2750    0.3710 C.3       1 <0>         0.0000
     15 C15        -1.9019    3.2433    1.1928 C.3       1 <0>         0.0000
     16 N1          1.6190    0.5274   -0.7660 N.3       1 <0>         0.0000
     17 N2          1.4238   -0.2520    4.8674 N.am      1 <0>         0.0000
     18 N3          1.7877    0.0290    3.5734 N.am      1 <0>         0.0000
     19 O1          0.3313    1.7736    5.1279 O.2       1 <0>         0.0000
     20 O2          1.7602   -2.2018    2.9407 O.2       1 <0>         0.0000
     21 O3          3.2186   -1.5159    0.7230 O.3       1 <0>         0.0000
     22 S1         -2.5681    1.5634    1.2065 S.3       1 <0>         0.0000
     23 Cl1         1.7344   -2.0675    9.8514 Cl        1 <0>         0.0000
     24 H1         -2.0661    0.9073    9.3037 H         1 <0>         0.0000
     25 H2         -1.4491    1.5473    6.9992 H         1 <0>         0.0000
     26 H3         -0.6715   -0.6858   10.5719 H         1 <0>         0.0000
     27 H4          2.0015   -1.0178    7.2086 H         1 <0>         0.0000
     28 H5         -3.2949    3.9917   -0.2846 H         1 <0>         0.0000
     29 H6         -1.7979    4.9218   -0.1894 H         1 <0>         0.0000
     30 H7         -1.8127    3.3346   -0.9875 H         1 <0>         0.0000
     31 H8         -3.5710    4.1220    2.2538 H         1 <0>         0.0000
     32 H9         -2.0781    5.0540    2.3882 H         1 <0>         0.0000
     33 H10        -2.2811    3.5556    3.3208 H         1 <0>         0.0000
     34 H11        -0.3395   -0.1920    1.9483 H         1 <0>         0.0000
     35 H12         0.3553    1.3657    1.5547 H         1 <0>         0.0000
     36 H13        -1.6569   -0.1854   -0.1361 H         1 <0>         0.0000
     37 H14        -0.9918    1.3768   -0.5976 H         1 <0>         0.0000
     38 H15         2.9484    0.3859    1.4229 H         1 <0>         0.0000
     39 H16         0.8058   -1.2336   -0.0276 H         1 <0>         0.0000
     40 H17        -0.8160    3.1696    1.3146 H         1 <0>         0.0000
     41 H18         0.8536    0.6316   -1.4231 H         1 <0>         0.0000
     42 H19         2.3513    0.0146   -1.2450 H         1 <0>         0.0000
     43 H20         1.6871   -1.1312    5.2989 H         1 <0>         0.0000
     44 H21         1.9478    0.9869    3.2798 H         1 <0>         0.0000
     45 H22         2.7041   -2.3378    0.6655 H         1 <0>         0.0000
@<TRIPOS>BOND
     1    1    2 ar
     2    1    3 ar
     3    2    5 ar
     4    3    6 ar
     5    4    5 ar
     6    4    6 ar
     7    5    7 1
     8    6   23 1
     9    7   17 am
    10    7   19 2
    11    8   13 1
    12    8   18 am
    13    8   20 2
    14    9   15 1
    15   10   15 1
    16   11   12 1
    17   11   14 1
    18   12   22 1
    19   13   14 1
    20   13   21 1
    21   14   16 1
    22   15   22 1
    23   17   18 1
    24    1   24 1
    25    2   25 1
    26    3   26 1
    27    4   27 1
    28    9   28 1
    29    9   29 1
    30    9   30 1
    31   10   31 1
    32   10   32 1
    33   10   33 1
    34   11   34 1
    35   11   35 1
    36   12   36 1
    37   12   37 1
    38   13   38 1
    39   14   39 1
    40   15   40 1
    41   16   41 1
    42   16   42 1
    43   17   43 1
    44   18   44 1
    45   21   45 1
@<TRIPOS>MOLECULE
LIGAND
   45    45     0     0     0
SMALL
NO_CHARGES

@<TRIPOS>ATOM
      1 C1         -2.1326   -2.6043    7.7561 C.ar      1 <0>         0.0000
      2 C2         -1.7551   -2.3302    6.4416 C.ar      1 <0>         0.0000
      3 C3         -1.6491   -1.8151    8.7997 C.ar      1 <0>         0.0000
      4 C4         -0.4104   -0.4776    7.2142 C.ar      1 <0>         0.0000
      5 C5         -0.8940   -1.2668    6.1707 C.ar      1 <0>         0.0000
      6 C6         -0.7879   -0.7518    8.5287 C.ar      1 <0>         0.0000
      7 C7         -0.4919   -0.9759    4.7701 C.2       1 <0>         0.0000
      8 C8          1.9325   -1.0133    2.6768 C.2       1 <0>         0.0000
      9 C9         -1.2188    2.4860   -4.0715 C.3       1 <0>         0.0000
     10 C10        -0.4191    1.0621   -5.9881 C.3       1 <0>         0.0000
     11 C11         1.5761    0.1765   -1.0474 C.3       1 <0>         0.0000
     12 C12         0.4360    0.4372   -2.0380 C.3       1 <0>         0.0000
     13 C13         2.3649   -0.5352    1.2935 C.3       1 <0>         0.0000
     14 C14         1.1534   -0.2750    0.3710 C.3       1 <0>         0.0000
     15 C15        -0.5876    1.1594   -4.4766 C.3       1 <0>         0.0000
     16 N1          0.3597   -1.5080    0.3138 N.3       1 <0>         0.0000
     17 N2          0.7320   -0.3536    4.6161 N.am      1 <0>         0.0000
     18 N3          1.1743   -0.0714    3.3469 N.am      1 <0>         0.0000
     19 O1         -1.2351   -1.3059    3.8493 O.2       1 <0>         0.0000
     20 O2          2.2555   -2.1109    3.1269 O.2       1 <0>         0.0000
     21 O3          3.2186   -1.5159    0.7230 O.3       1 <0>         0.0000
     22 S1          1.0200    0.9781   -3.6711 S.3       1 <0>         0.0000
     23 Cl1        -0.1920    0.2220    9.8169 Cl        1 <0>         0.0000
     24 H1         -2.8034   -3.4321    7.9668 H         1 <0>         0.0000
     25 H2         -2.1385   -2.9523    5.6369 H         1 <0>         0.0000
     26 H3         -1.9519   -2.0407    9.8189 H         1 <0>         0.0000
     27 H4          0.2608    0.3516    6.9998 H         1 <0>         0.0000
     28 H5         -0.5957    3.3223   -4.4074 H         1 <0>         0.0000
     29 H6         -2.2073    2.6127   -4.5270 H         1 <0>         0.0000
     30 H7         -1.3270    2.5723   -2.9843 H         1 <0>         0.0000
     31 H8          0.2163    1.8766   -6.3535 H         1 <0>         0.0000
     32 H9         -1.3827    1.1446   -6.5030 H         1 <0>         0.0000
     33 H10         0.0512    0.1184   -6.2872 H         1 <0>         0.0000
     34 H11         2.1631    1.1018   -0.9736 H         1 <0>         0.0000
     35 H12         2.2520   -0.5707   -1.4824 H         1 <0>         0.0000
     36 H13        -0.2073    1.2295   -1.6408 H         1 <0>         0.0000
     37 H14        -0.1907   -0.4501   -2.1649 H         1 <0>         0.0000
     38 H15         2.9484    0.3859    1.4229 H         1 <0>         0.0000
     39 H16         0.5249    0.4957    0.8291 H         1 <0>         0.0000
     40 H17        -1.2247    0.3378   -4.1321 H         1 <0>         0.0000
     41 H18        -0.4842   -1.3249   -0.2178 H         1 <0>         0.0000
     42 H19         0.0690   -1.7492    1.2550 H         1 <0>         0.0000
     43 H20         1.2931   -0.1098    5.4249 H         1 <0>         0.0000
     44 H21         0.9480    0.8148    2.9078 H         1 <0>         0.0000
     45 H22         2.7041   -2.3378    0.6655 H         1 <0>         0.0000
@<TRIPOS>BOND
     1    1    2 ar
     2    1    3 ar
     3    2    5 ar
     4    3    6 ar
     5    4    5 ar
     6    4    6 ar
     7    5    7 1
     8    6   23 1
     9    7   17 am
    10    7   19 2
    11    8   13 1
    12    8   18 am
    13    8   20 2
    14    9   15 1
    15   10   15 1
    16   11   12 1
    17   11   14 1
    18   12   22 1
    19   13   14 1
    20   13   21 1
    21   14   16 1
    22   15   22 1
    23   17   18 1
    24    1   24 1
    25    2   25 1
    26    3   26 1
    27    4   27 1
    28    9   28 1
    29    9   29 1
    30    9   30 1
    31   10   31 1
    32   10   32 1
    33   10   33 1
    34   11   34 1
    35   11   35 1
    36   12   36 1
    37   12   37 1
    38   13   38 1
    39   14   39 1
    40   15   40 1
    41   16   41 1
    42   16   42 1
    43   17   43 1
    44   18   44 1
    45   21   45 1
@<TRIPOS>MOLECULE
LIGAND
   45    45     0     0     0
SMALL
NO_CHARGES

@<TRIPOS>ATOM
      1 C1          2.2466   -2.5526    8.8826 C.ar      1 <0>         0.0000
      2 C2          2.5475   -2.1101    7.5945 C.ar      1 <0>         0.0000
      3 C3          2.1624   -1.6379    9.9324 C.ar      1 <0>         0.0000
      4 C4          2.6802    0.1617    8.4058 C.ar      1 <0>         0.0000
      5 C5          2.7643   -0.7530    7.3561 C.ar      1 <0>         0.0000
      6 C6          2.3792   -0.2808    9.6940 C.ar      1 <0>         0.0000
      7 C7          3.0854   -0.2826    5.9837 C.2       1 <0>         0.0000
      8 C8          1.9325   -1.0133    2.6768 C.2       1 <0>         0.0000
      9 C9          0.3770    5.2187   -0.2001 C.3       1 <0>         0.0000
     10 C10         0.1630    6.1072    2.1462 C.3       1 <0>         0.0000
     11 C11         0.2195    0.8307    0.9188 C.3       1 <0>         0.0000
     12 C12         0.8590    2.2074    1.1305 C.3       1 <0>         0.0000
     13 C13         2.3649   -0.5352    1.2935 C.3       1 <0>         0.0000
     14 C14         1.1534   -0.2750    0.3710 C.3       1 <0>         0.0000
     15 C15         0.6016    4.9327    1.2798 C.3       1 <0>         0.0000
     16 N1          1.6681    0.0834   -0.9557 N.3       1 <0>         0.0000
     17 N2          2.6023   -1.0670    4.9540 N.am      1 <0>         0.0000
     18 N3          2.8469   -0.6810    3.6590 N.am      1 <0>         0.0000
     19 O1          3.7293    0.7533    5.8374 O.2       1 <0>         0.0000
     20 O2          0.8915   -1.6405    2.8632 O.2       1 <0>         0.0000
     21 O3          3.2186   -1.5159    0.7230 O.3       1 <0>         0.0000
     22 S1         -0.3102    3.4478    1.7590 S.3       1 <0>         0.0000
     23 Cl1         2.2747    0.8474   10.9897 Cl        1 <0>         0.0000
     24 H1          2.0776   -3.6092    9.0680 H         1 <0>         0.0000
     25 H2          2.6105   -2.8325    6.7847 H         1 <0>         0.0000
     26 H3          1.9271   -1.9973   10.9308 H         1 <0>         0.0000
     27 H4          2.8492    1.2199    8.2168 H         1 <0>         0.0000
     28 H5         -0.6832    5.4173   -0.3928 H         1 <0>         0.0000
     29 H6          0.9382    6.1019   -0.5252 H         1 <0>         0.0000
     30 H7          0.6728    4.3718   -0.8297 H         1 <0>         0.0000
     31 H8         -0.9005    6.3195    1.9896 H         1 <0>         0.0000
     32 H9          0.7176    7.0179    1.8939 H         1 <0>         0.0000
     33 H10         0.3040    5.9029    3.2137 H         1 <0>         0.0000
     34 H11        -0.6259    0.9652    0.2307 H         1 <0>         0.0000
     35 H12        -0.2197    0.5004    1.8688 H         1 <0>         0.0000
     36 H13         1.2423    2.5738    0.1722 H         1 <0>         0.0000
     37 H14         1.7108    2.1489    1.8142 H         1 <0>         0.0000
     38 H15         2.9484    0.3859    1.4229 H         1 <0>         0.0000
     39 H16         0.5915   -1.2082    0.2610 H         1 <0>         0.0000
     40 H17         1.6656    4.7372    1.4509 H         1 <0>         0.0000
     41 H18         0.8845    0.1717   -1.5934 H         1 <0>         0.0000
     42 H19         2.2416   -0.6802   -1.2969 H         1 <0>         0.0000
     43 H20         2.0769   -1.9119    5.1509 H         1 <0>         0.0000
     44 H21         3.6858   -0.1599    3.4266 H         1 <0>         0.0000
     45 H22         2.7041   -2.3378    0.6655 H         1 <0>         0.0000
@<TRIPOS>BOND
     1    1    2 ar
     2    1    3 ar
     3    2    5 ar
     4    3    6 ar
     5    4    5 ar
     6    4    6 ar
     7    5    7 1
     8    6   23 1
     9    7   17 am
    10    7   19 2
    11    8   13 1
    12    8   18 am
    13    8   20 2
    14    9   15 1
    15   10   15 1
    16   11   12 1
    17   11   14 1
    18   12   22 1
    19   13   14 1
    20   13   21 1
    21   14   16 1
    22   15   22 1
    23   17   18 1
    24    1   24 1
    25    2   25 1
    26    3   26 1
    27    4   27 1
    28    9   28 1
    29    9   29 1
    30    9   30 1
    31   10   31 1
    32   10   32 1
    33   10   33 1
    34   11   34 1
    35   11   35 1
    36   12   36 1
    37   12   37 1
    38   13   38 1
    39   14   39 1
    40   15   40 1
    41   16   41 1
    42   16   42 1
    43   17   43 1
    44   18   44 1
    45   21   45 1
@<TRIPOS>MOLECULE
LIGAND
   45    45     0     0     0
SMALL
NO_CHARGES

@<TRIPOS>ATOM
      1 C1          2.3780   -0.2776    9.6931 C.ar      1 <0>         0.0000
      2 C2          2.6800    0.1631    8.4046 C.ar      1 <0>         0.0000
      3 C3          2.1604   -1.6343    9.9331 C.ar      1 <0>         0.0000
      4 C4          2.5467   -2.1098    7.5961 C.ar      1 <0>         0.0000
      5 C5          2.7643   -0.7530    7.3561 C.ar      1 <0>         0.0000
      6 C6          2.2447   -2.5504    8.8846 C.ar      1 <0>         0.0000
      7 C7          3.0854   -0.2826    5.9837 C.2       1 <0>         0.0000
      8 C8          1.9325   -1.0133    2.6768 C.2       1 <0>         0.0000
      9 C9         -4.0383    1.9882   -1.0273 C.3       1 <0>         0.0000
     10 C10        -3.4456    4.3900   -0.5583 C.3       1 <0>         0.0000
     11 C11         0.2195    0.8307    0.9188 C.3       1 <0>         0.0000
     12 C12        -1.0001    1.1700    0.0549 C.3       1 <0>         0.0000
     13 C13         2.3649   -0.5352    1.2935 C.3       1 <0>         0.0000
     14 C14         1.1534   -0.2750    0.3710 C.3       1 <0>         0.0000
     15 C15        -2.9141    2.9715   -0.7245 C.3       1 <0>         0.0000
     16 N1          1.6681    0.0834   -0.9557 N.3       1 <0>         0.0000
     17 N2          2.6023   -1.0670    4.9540 N.am      1 <0>         0.0000
     18 N3          2.8469   -0.6810    3.6590 N.am      1 <0>         0.0000
     19 O1          3.7293    0.7533    5.8374 O.2       1 <0>         0.0000
     20 O2          0.8915   -1.6405    2.8632 O.2       1 <0>         0.0000
     21 O3          3.2186   -1.5159    0.7230 O.3       1 <0>         0.0000
     22 S1         -2.0492    2.4644    0.7791 S.3       1 <0>         0.0000
     23 Cl1         1.9766   -4.2245    9.1816 Cl        1 <0>         0.0000
     24 H1          2.3127    0.4358   10.5093 H         1 <0>         0.0000
     25 H2          2.8474    1.2228    8.2300 H         1 <0>         0.0000
     26 H3          1.9260   -1.9630   10.9423 H         1 <0>         0.0000
     27 H4          2.6137   -2.8222    6.7763 H         1 <0>         0.0000
     28 H5         -4.7755    1.9915   -0.2167 H         1 <0>         0.0000
     29 H6         -4.5662    2.2576   -1.9489 H         1 <0>         0.0000
     30 H7         -3.6673    0.9620   -1.1303 H         1 <0>         0.0000
     31 H8         -4.1737    4.4304    0.2595 H         1 <0>         0.0000
     32 H9         -3.9550    4.7339   -1.4654 H         1 <0>         0.0000
     33 H10        -2.6458    5.1012   -0.3221 H         1 <0>         0.0000
     34 H11        -0.1531    0.5335    1.9082 H         1 <0>         0.0000
     35 H12         0.7975    1.7493    1.0822 H         1 <0>         0.0000
     36 H13        -1.6176    0.2727   -0.0585 H         1 <0>         0.0000
     37 H14        -0.7009    1.4813   -0.9501 H         1 <0>         0.0000
     38 H15         2.9484    0.3859    1.4229 H         1 <0>         0.0000
     39 H16         0.5915   -1.2082    0.2610 H         1 <0>         0.0000
     40 H17        -2.1892    2.9529   -1.5453 H         1 <0>         0.0000
     41 H18         0.8845    0.1717   -1.5934 H         1 <0>         0.0000
     42 H19         2.2416   -0.6802   -1.2969 H         1 <0>         0.0000
     43 H20         2.0769   -1.9119    5.1509 H         1 <0>         0.0000
     44 H21         3.6858   -0.1599    3.4266 H         1 <0>         0.0000
     45 H22         2.7041   -2.3378    0.6655 H         1 <0>         0.0000
@<TRIPOS>BOND
     1    1    2 ar
     2    1    3 ar
     3    2    5 ar
     4    3    6 ar
     5    4    5 ar
     6    4    6 ar
     7    5    7 1
     8    6   23 1
     9    7   17 am
    10    7   19 2
    11    8   13 1
    12    8   18 am
    13    8   20 2
    14    9   15 1
    15   10   15 1
    16   11   12 1
    17   11   14 1
    18   12   22 1
    19   13   14 1
    20   13   21 1
    21   14   16 1
    22   15   22 1
    23   17   18 1
    24    1   24 1
    25    2   25 1
    26    3   26 1
    27    4   27 1
    28    9   28 1
    29    9   29 1
    30    9   30 1
    31   10   31 1
    32   10   32 1
    33   10   33 1
    34   11   34 1
    35   11   35 1
    36   12   36 1
    37   12   37 1
    38   13   38 1
    39   14   39 1
    40   15   40 1
    41   16   41 1
    42   16   42 1
    43   17   43 1
    44   18   44 1
    45   21   45 1
@<TRIPOS>MOLECULE
LIGAND
   45    45     0     0     0
SMALL
NO_CHARGES

@<TRIPOS>ATOM
      1 C1          2.3494   -1.9340    9.0709 C.ar      1 <0>         0.0000
      2 C2          2.6184   -1.6158    7.7398 C.ar      1 <0>         0.0000
      3 C3          2.2507   -3.2692    9.4627 C.ar      1 <0>         0.0000
      4 C4          2.6898   -3.9679    7.1920 C.ar      1 <0>         0.0000
      5 C5          2.7886   -2.6327    6.8003 C.ar      1 <0>         0.0000
      6 C6          2.4209   -4.2860    8.5232 C.ar      1 <0>         0.0000
      7 C7          3.0744   -2.2928    5.3823 C.2       1 <0>         0.0000
      8 C8          1.9325   -1.0133    2.6768 C.2       1 <0>         0.0000
      9 C9         -2.4695    4.5098    0.4722 C.3       1 <0>         0.0000
     10 C10        -0.2177    4.7761   -0.6229 C.3       1 <0>         0.0000
     11 C11         0.2195    0.8307    0.9188 C.3       1 <0>         0.0000
     12 C12         0.8590    2.2074    1.1305 C.3       1 <0>         0.0000
     13 C13         2.3649   -0.5352    1.2935 C.3       1 <0>         0.0000
     14 C14         1.1534   -0.2750    0.3710 C.3       1 <0>         0.0000
     15 C15        -1.1189    3.8600    0.1963 C.3       1 <0>         0.0000
     16 N1          1.6681    0.0834   -0.9557 N.3       1 <0>         0.0000
     17 N2          2.6023   -1.0670    4.9540 N.am      1 <0>         0.0000
     18 N3          2.8469   -0.6810    3.6590 N.am      1 <0>         0.0000
     19 O1          3.7083   -3.0847    4.6892 O.2       1 <0>         0.0000
     20 O2          0.8915   -1.6405    2.8632 O.2       1 <0>         0.0000
     21 O3          3.2186   -1.5159    0.7230 O.3       1 <0>         0.0000
     22 S1         -0.3102    3.4478    1.7590 S.3       1 <0>         0.0000
     23 Cl1         2.2994   -5.9333    9.0073 Cl        1 <0>         0.0000
     24 H1          2.2173   -1.1422    9.8023 H         1 <0>         0.0000
     25 H2          2.6929   -0.5718    7.4466 H         1 <0>         0.0000
     26 H3          2.0407   -3.5019   10.5034 H         1 <0>         0.0000
     27 H4          2.8236   -4.7591    6.4570 H         1 <0>         0.0000
     28 H5         -2.3352    5.4486    1.0211 H         1 <0>         0.0000
     29 H6         -2.9944    4.7495   -0.4593 H         1 <0>         0.0000
     30 H7         -3.1176    3.8651    1.0767 H         1 <0>         0.0000
     31 H8         -0.0488    5.7190   -0.0908 H         1 <0>         0.0000
     32 H9         -0.6728    5.0239   -1.5883 H         1 <0>         0.0000
     33 H10         0.7629    4.3240   -0.8105 H         1 <0>         0.0000
     34 H11        -0.6259    0.9652    0.2307 H         1 <0>         0.0000
     35 H12        -0.2197    0.5004    1.8688 H         1 <0>         0.0000
     36 H13         1.2423    2.5738    0.1722 H         1 <0>         0.0000
     37 H14         1.7108    2.1489    1.8142 H         1 <0>         0.0000
     38 H15         2.9484    0.3859    1.4229 H         1 <0>         0.0000
     39 H16         0.5915   -1.2082    0.2610 H         1 <0>         0.0000
     40 H17        -1.2750    2.9249   -0.3521 H         1 <0>         0.0000
     41 H18         0.8845    0.1717   -1.5934 H         1 <0>         0.0000
     42 H19         2.2416   -0.6802   -1.2969 H         1 <0>         0.0000
     43 H20         2.0849   -0.4638    5.5841 H         1 <0>         0.0000
     44 H21         3.6858   -0.1599    3.4266 H         1 <0>         0.0000
     45 H22         2.7041   -2.3378    0.6655 H         1 <0>         0.0000
@<TRIPOS>BOND
     1    1    2 ar
     2    1    3 ar
     3    2    5 ar
     4    3    6 ar
     5    4    5 ar
     6    4    6 ar
     7    5    7 1
     8    6   23 1
     9    7   17 am
    10    7   19 2
    11    8   13 1
    12    8   18 am
    13    8   20 2
    14    9   15 1
    15   10   15 1
    16   11   12 1
    17   11   14 1
    18   12   22 1
    19   13   14 1
    20   13   21 1
    21   14   16 1
    22   15   22 1
    23   17   18 1
    24    1   24 1
    25    2   25 1
    26    3   26 1
    27    4   27 1
    28    9   28 1
    29    9   29 1
    30    9   30 1
    31   10   31 1
    32   10   32 1
    33   10   33 1
    34   11   34 1
    35   11   35 1
    36   12   36 1
    37   12   37 1
    38   13   38 1
    39   14   39 1
    40   15   40 1
    41   16   41 1
    42   16   42 1
    43   17   43 1
    44   18   44 1
    45   21   45 1
@<TRIPOS>MOLECULE
LIGAND
   45    45     0     0     0
SMALL
NO_CHARGES

@<TRIPOS>ATOM
      1 C1         -0.8688   -1.7203    8.2676 C.ar      1 <0>         0.0000
      2 C2         -0.4721   -1.3756    6.9756 C.ar      1 <0>         0.0000
      3 C3         -1.6746   -0.8524    9.0047 C.ar      1 <0>         0.0000
      4 C4         -1.6869    0.7048    7.1576 C.ar      1 <0>         0.0000
      5 C5         -0.8811   -0.1631    6.4206 C.ar      1 <0>         0.0000
      6 C6         -2.0836    0.3601    8.4497 C.ar      1 <0>         0.0000
      7 C7         -0.4576    0.2036    5.0443 C.2       1 <0>         0.0000
      8 C8          1.9325   -1.0133    2.6768 C.2       1 <0>         0.0000
      9 C9          0.2249   -1.3614   -4.8293 C.3       1 <0>         0.0000
     10 C10         2.4955   -0.4691   -5.4530 C.3       1 <0>         0.0000
     11 C11         1.5761    0.1765   -1.0474 C.3       1 <0>         0.0000
     12 C12         0.4360    0.4372   -2.0380 C.3       1 <0>         0.0000
     13 C13         2.3649   -0.5352    1.2935 C.3       1 <0>         0.0000
     14 C14         1.1534   -0.2750    0.3710 C.3       1 <0>         0.0000
     15 C15         1.4734   -0.6402   -4.3356 C.3       1 <0>         0.0000
     16 N1          0.3597   -1.5080    0.3138 N.3       1 <0>         0.0000
     17 N2          0.7320   -0.3536    4.6161 N.am      1 <0>         0.0000
     18 N3          1.1743   -0.0714    3.3469 N.am      1 <0>         0.0000
     19 O1         -1.1696    0.9461    4.3728 O.2       1 <0>         0.0000
     20 O2          2.2555   -2.1109    3.1269 O.2       1 <0>         0.0000
     21 O3          3.2186   -1.5159    0.7230 O.3       1 <0>         0.0000
     22 S1          1.0200    0.9781   -3.6711 S.3       1 <0>         0.0000
     23 Cl1        -3.0783    1.4303    9.3596 Cl        1 <0>         0.0000
     24 H1         -0.5505   -2.6646    8.6994 H         1 <0>         0.0000
     25 H2          0.1559   -2.0601    6.4111 H         1 <0>         0.0000
     26 H3         -1.9758   -1.1345   10.0103 H         1 <0>         0.0000
     27 H4         -2.0049    1.6499    6.7219 H         1 <0>         0.0000
     28 H5         -0.2418   -0.7988   -5.6457 H         1 <0>         0.0000
     29 H6          0.4667   -2.3574   -5.2167 H         1 <0>         0.0000
     30 H7         -0.5235   -1.4725   -4.0365 H         1 <0>         0.0000
     31 H8          2.0637    0.1071   -6.2789 H         1 <0>         0.0000
     32 H9          2.8077   -1.4375   -5.8596 H         1 <0>         0.0000
     33 H10         3.3894    0.0650   -5.1112 H         1 <0>         0.0000
     34 H11         2.1631    1.1018   -0.9736 H         1 <0>         0.0000
     35 H12         2.2520   -0.5707   -1.4824 H         1 <0>         0.0000
     36 H13        -0.2073    1.2295   -1.6408 H         1 <0>         0.0000
     37 H14        -0.1907   -0.4501   -2.1649 H         1 <0>         0.0000
     38 H15         2.9484    0.3859    1.4229 H         1 <0>         0.0000
     39 H16         0.5249    0.4957    0.8291 H         1 <0>         0.0000
     40 H17         1.9240   -1.2177   -3.5214 H         1 <0>         0.0000
     41 H18        -0.4842   -1.3249   -0.2178 H         1 <0>         0.0000
     42 H19         0.0690   -1.7492    1.2550 H         1 <0>         0.0000
     43 H20         1.2684   -0.9594    5.2274 H         1 <0>         0.0000
     44 H21         0.9480    0.8148    2.9078 H         1 <0>         0.0000
     45 H22         2.7041   -2.3378    0.6655 H         1 <0>         0.0000
@<TRIPOS>BOND
     1    1    2 ar
     2    1    3 ar
     3    2    5 ar
     4    3    6 ar
     5    4    5 ar
     6    4    6 ar
     7    5    7 1
     8    6   23 1
     9    7   17 am
    10    7   19 2
    11    8   13 1
    12    8   18 am
    13    8   20 2
    14    9   15 1
    15   10   15 1
    16   11   12 1
    17   11   14 1
    18   12   22 1
    19   13   14 1
    20   13   21 1
    21   14   16 1
    22   15   22 1
    23   17   18 1
    24    1   24 1
    25    2   25 1
    26    3   26 1
    27    4   27 1
    28    9   28 1
    29    9   29 1
    30    9   30 1
    31   10   31 1
    32   10   32 1
    33   10   33 1
    34   11   34 1
    35   11   35 1
    36   12   36 1
    37   12   37 1
    38   13   38 1
    39   14   39 1
    40   15   40 1
    41   16   41 1
    42   16   42 1
    43   17   43 1
    44   18   44 1
    45   21   45 1
@<TRIPOS>MOLECULE
LIGAND
   45    45     0     0     0
SMALL
NO_CHARGES

@<TRIPOS>ATOM
      1 C1          1.4828   -0.9664    9.1345 C.ar      1 <0>         0.0000
      2 C2          1.8325   -0.6995    7.8109 C.ar      1 <0>         0.0000
      3 C3          1.9106   -2.1455    9.7447 C.ar      1 <0>         0.0000
      4 C4          3.0378   -2.7908    7.7076 C.ar      1 <0>         0.0000
      5 C5          2.6100   -1.6117    7.0974 C.ar      1 <0>         0.0000
      6 C6          2.6881   -3.0577    9.0313 C.ar      1 <0>         0.0000
      7 C7          2.9815   -1.3268    5.6872 C.2       1 <0>         0.0000
      8 C8          1.9325   -1.0133    2.6768 C.2       1 <0>         0.0000
      9 C9         -4.0383    1.9882   -1.0273 C.3       1 <0>         0.0000
     10 C10        -3.4456    4.3900   -0.5583 C.3       1 <0>         0.0000
     11 C11         0.2195    0.8307    0.9188 C.3       1 <0>         0.0000
     12 C12        -1.0001    1.1700    0.0549 C.3       1 <0>         0.0000
     13 C13         2.3649   -0.5352    1.2935 C.3       1 <0>         0.0000
     14 C14         1.1534   -0.2750    0.3710 C.3       1 <0>         0.0000
     15 C15        -2.9141    2.9715   -0.7245 C.3       1 <0>         0.0000
     16 N1          1.6681    0.0834   -0.9557 N.3       1 <0>         0.0000
     17 N2          2.1084   -0.5131    4.9911 N.am      1 <0>         0.0000
     18 N3          2.3999   -0.1941    3.6876 N.am      1 <0>         0.0000
     19 O1          4.0191   -1.8000    5.2304 O.2       1 <0>         0.0000
     20 O2          1.2610   -2.0296    2.8442 O.2       1 <0>         0.0000
     21 O3          3.2186   -1.5159    0.7230 O.3       1 <0>         0.0000
     22 S1         -2.0492    2.4644    0.7791 S.3       1 <0>         0.0000
     23 Cl1         3.2160   -4.5123    9.7850 Cl        1 <0>         0.0000
     24 H1          0.8778   -0.2559    9.6899 H         1 <0>         0.0000
     25 H2          1.4931    0.2227    7.3462 H         1 <0>         0.0000
     26 H3          1.6303   -2.3400   10.7768 H         1 <0>         0.0000
     27 H4          3.6446   -3.5004    7.1487 H         1 <0>         0.0000
     28 H5         -4.7755    1.9915   -0.2167 H         1 <0>         0.0000
     29 H6         -4.5662    2.2576   -1.9489 H         1 <0>         0.0000
     30 H7         -3.6673    0.9620   -1.1303 H         1 <0>         0.0000
     31 H8         -4.1737    4.4304    0.2595 H         1 <0>         0.0000
     32 H9         -3.9550    4.7339   -1.4654 H         1 <0>         0.0000
     33 H10        -2.6458    5.1012   -0.3221 H         1 <0>         0.0000
     34 H11        -0.1531    0.5335    1.9082 H         1 <0>         0.0000
     35 H12         0.7975    1.7493    1.0822 H         1 <0>         0.0000
     36 H13        -1.6176    0.2727   -0.0585 H         1 <0>         0.0000
     37 H14        -0.7009    1.4813   -0.9501 H         1 <0>         0.0000
     38 H15         2.9484    0.3859    1.4229 H         1 <0>         0.0000
     39 H16         0.5915   -1.2082    0.2610 H         1 <0>         0.0000
     40 H17        -2.1892    2.9529   -1.5453 H         1 <0>         0.0000
     41 H18         0.8845    0.1717   -1.5934 H         1 <0>         0.0000
     42 H19         2.2416   -0.6802   -1.2969 H         1 <0>         0.0000
     43 H20         1.2682   -0.1582    5.4344 H         1 <0>         0.0000
     44 H21         2.9499    0.6302    3.4697 H         1 <0>         0.0000
     45 H22         2.7041   -2.3378    0.6655 H         1 <0>         0.0000
@<TRIPOS>BOND
     1    1    2 ar
     2    1    3 ar
     3    2    5 ar
     4    3    6 ar
     5    4    5 ar
     6    4    6 ar
     7    5    7 1
     8    6   23 1
     9    7   17 am
    10    7   19 2
    11    8   13 1
    12    8   18 am
    13    8   20 2
    14    9   15 1
    15   10   15 1
    16   11   12 1
    17   11   14 1
    18   12   22 1
    19   13   14 1
    20   13   21 1
    21   14   16 1
    22   15   22 1
    23   17   18 1
    24    1   24 1
    25    2   25 1
    26    3   26 1
    27    4   27 1
    28    9   28 1
    29    9   29 1
    30    9   30 1
    31   10   31 1
    32   10   32 1
    33   10   33 1
    34   11   34 1
    35   11   35 1
    36   12   36 1
    37   12   37 1
    38   13   38 1
    39   14   39 1
    40   15   40 1
    41   16   41 1
    42   16   42 1
    43   17   43 1
    44   18   44 1
    45   21   45 1
@<TRIPOS>MOLECULE
LIGAND
   45    45     0     0     0
SMALL
NO_CHARGES

@<TRIPOS>ATOM
      1 C1         -2.6241   -1.6244    7.8186 C.ar      1 <0>         0.0000
      2 C2         -2.2458   -1.3508    6.5042 C.ar      1 <0>         0.0000
      3 C3         -1.6506   -1.8141    8.7994 C.ar      1 <0>         0.0000
      4 C4          0.0795   -1.4566    7.1515 C.ar      1 <0>         0.0000
      5 C5         -0.8940   -1.2668    6.1707 C.ar      1 <0>         0.0000
      6 C6         -0.2989   -1.7302    8.4659 C.ar      1 <0>         0.0000
      7 C7         -0.4919   -0.9759    4.7701 C.2       1 <0>         0.0000
      8 C8          1.9325   -1.0133    2.6768 C.2       1 <0>         0.0000
      9 C9          4.6590    3.8060   -3.6175 C.3       1 <0>         0.0000
     10 C10         2.7384    4.5764   -2.1830 C.3       1 <0>         0.0000
     11 C11         1.5761    0.1765   -1.0474 C.3       1 <0>         0.0000
     12 C12         2.3784    1.4800   -1.1273 C.3       1 <0>         0.0000
     13 C13         2.3649   -0.5352    1.2935 C.3       1 <0>         0.0000
     14 C14         1.1534   -0.2750    0.3710 C.3       1 <0>         0.0000
     15 C15         3.7349    3.4566   -2.4572 C.3       1 <0>         0.0000
     16 N1          0.3597   -1.5080    0.3138 N.3       1 <0>         0.0000
     17 N2          0.7320   -0.3536    4.6161 N.am      1 <0>         0.0000
     18 N3          1.1743   -0.0714    3.3469 N.am      1 <0>         0.0000
     19 O1         -1.2351   -1.3059    3.8493 O.2       1 <0>         0.0000
     20 O2          2.2555   -2.1109    3.1269 O.2       1 <0>         0.0000
     21 O3          3.2186   -1.5159    0.7230 O.3       1 <0>         0.0000
     22 S1          2.8465    1.9264   -2.8249 S.3       1 <0>         0.0000
     23 Cl1         0.9018   -1.9639    9.6768 Cl        1 <0>         0.0000
     24 H1         -3.6766   -1.6894    8.0781 H         1 <0>         0.0000
     25 H2         -3.0136   -1.2050    5.7487 H         1 <0>         0.0000
     26 H3         -1.9605   -2.0267    9.8194 H         1 <0>         0.0000
     27 H4          1.1333   -1.3900    6.8885 H         1 <0>         0.0000
     28 H5          4.0760    3.9846   -4.5280 H         1 <0>         0.0000
     29 H6          5.2297    4.7186   -3.4120 H         1 <0>         0.0000
     30 H7          5.3674    2.9982   -3.8338 H         1 <0>         0.0000
     31 H8          2.1258    4.7669   -3.0714 H         1 <0>         0.0000
     32 H9          3.2495    5.5128   -1.9328 H         1 <0>         0.0000
     33 H10         2.0576    4.3258   -1.3615 H         1 <0>         0.0000
     34 H11         2.1843   -0.6108   -1.5125 H         1 <0>         0.0000
     35 H12         0.6847    0.2765   -1.6798 H         1 <0>         0.0000
     36 H13         3.3029    1.3655   -0.5514 H         1 <0>         0.0000
     37 H14         1.8267    2.3139   -0.6838 H         1 <0>         0.0000
     38 H15         2.9484    0.3859    1.4229 H         1 <0>         0.0000
     39 H16         0.5249    0.4957    0.8291 H         1 <0>         0.0000
     40 H17         4.3362    3.2822   -1.5586 H         1 <0>         0.0000
     41 H18        -0.4842   -1.3249   -0.2178 H         1 <0>         0.0000
     42 H19         0.0690   -1.7492    1.2550 H         1 <0>         0.0000
     43 H20         1.2931   -0.1098    5.4249 H         1 <0>         0.0000
     44 H21         0.9480    0.8148    2.9078 H         1 <0>         0.0000
     45 H22         2.7041   -2.3378    0.6655 H         1 <0>         0.0000
@<TRIPOS>BOND
     1    1    2 ar
     2    1    3 ar
     3    2    5 ar
     4    3    6 ar
     5    4    5 ar
     6    4    6 ar
     7    5    7 1
     8    6   23 1
     9    7   17 am
    10    7   19 2
    11    8   13 1
    12    8   18 am
    13    8   20 2
    14    9   15 1
    15   10   15 1
    16   11   12 1
    17   11   14 1
    18   12   22 1
    19   13   14 1
    20   13   21 1
    21   14   16 1
    22   15   22 1
    23   17   18 1
    24    1   24 1
    25    2   25 1
    26    3   26 1
    27    4   27 1
    28    9   28 1
    29    9   29 1
    30    9   30 1
    31   10   31 1
    32   10   32 1
    33   10   33 1
    34   11   34 1
    35   11   35 1
    36   12   36 1
    37   12   37 1
    38   13   38 1
    39   14   39 1
    40   15   40 1
    41   16   41 1
    42   16   42 1
    43   17   43 1
    44   18   44 1
    45   21   45 1
@<TRIPOS>MOLECULE
LIGAND
   45    45     0     0     0
SMALL
NO_CHARGES

@<TRIPOS>ATOM
      1 C1         -0.5153   -4.0016    7.6155 C.ar      1 <0>         0.0000
      2 C2         -0.0816   -3.4032    6.4326 C.ar      1 <0>         0.0000
      3 C3         -1.8803   -4.1197    7.8777 C.ar      1 <0>         0.0000
      4 C4         -2.3777   -3.0408    5.7741 C.ar      1 <0>         0.0000
      5 C5         -1.0128   -2.9227    5.5119 C.ar      1 <0>         0.0000
      6 C6         -2.8114   -3.6393    6.9570 C.ar      1 <0>         0.0000
      7 C7         -0.5498   -2.2848    4.2523 C.2       1 <0>         0.0000
      8 C8          1.9325   -1.0133    2.6768 C.2       1 <0>         0.0000
      9 C9         -4.5752    3.1779    0.0331 C.3       1 <0>         0.0000
     10 C10        -2.7668    3.3107   -1.7140 C.3       1 <0>         0.0000
     11 C11         0.2195    0.8307    0.9188 C.3       1 <0>         0.0000
     12 C12        -1.0001    1.1700    0.0549 C.3       1 <0>         0.0000
     13 C13         2.3649   -0.5352    1.2935 C.3       1 <0>         0.0000
     14 C14         1.1534   -0.2750    0.3710 C.3       1 <0>         0.0000
     15 C15        -3.3066    2.5373   -0.5169 C.3       1 <0>         0.0000
     16 N1          1.6681    0.0834   -0.9557 N.3       1 <0>         0.0000
     17 N2          0.6851   -2.6985    3.7909 N.am      1 <0>         0.0000
     18 N3          1.1665   -2.1628    2.6216 N.am      1 <0>         0.0000
     19 O1         -1.2703   -1.4609    3.6944 O.2       1 <0>         0.0000
     20 O2          2.2299   -0.4108    3.7066 O.2       1 <0>         0.0000
     21 O3          3.2186   -1.5159    0.7230 O.3       1 <0>         0.0000
     22 S1         -2.0492    2.4644    0.7791 S.3       1 <0>         0.0000
     23 Cl1        -4.4955   -3.7857    7.2810 Cl        1 <0>         0.0000
     24 H1          0.2098   -4.3759    8.3321 H         1 <0>         0.0000
     25 H2          0.9846   -3.3169    6.2396 H         1 <0>         0.0000
     26 H3         -2.2034   -4.5883    8.8037 H         1 <0>         0.0000
     27 H4         -3.1019   -2.6655    5.0538 H         1 <0>         0.0000
     28 H5         -4.3764    4.2092    0.3452 H         1 <0>         0.0000
     29 H6         -5.3650    3.2137   -0.7256 H         1 <0>         0.0000
     30 H7         -4.9604    2.6385    0.9059 H         1 <0>         0.0000
     31 H8         -2.5401    4.3441   -1.4288 H         1 <0>         0.0000
     32 H9         -3.5004    3.3505   -2.5268 H         1 <0>         0.0000
     33 H10        -1.8438    2.8672   -2.1048 H         1 <0>         0.0000
     34 H11        -0.1531    0.5335    1.9082 H         1 <0>         0.0000
     35 H12         0.7975    1.7493    1.0822 H         1 <0>         0.0000
     36 H13        -1.6176    0.2727   -0.0585 H         1 <0>         0.0000
     37 H14        -0.7009    1.4813   -0.9501 H         1 <0>         0.0000
     38 H15         2.9484    0.3859    1.4229 H         1 <0>         0.0000
     39 H16         0.5915   -1.2082    0.2610 H         1 <0>         0.0000
     40 H17        -3.5264    1.5088   -0.8227 H         1 <0>         0.0000
     41 H18         0.8845    0.1717   -1.5934 H         1 <0>         0.0000
     42 H19         2.2416   -0.6802   -1.2969 H         1 <0>         0.0000
     43 H20         1.2257   -3.3847    4.3060 H         1 <0>         0.0000
     44 H21         0.9630   -2.6038    1.7309 H         1 <0>         0.0000
     45 H22         2.7041   -2.3378    0.6655 H         1 <0>         0.0000
@<TRIPOS>BOND
     1    1    2 ar
     2    1    3 ar
     3    2    5 ar
     4    3    6 ar
     5    4    5 ar
     6    4    6 ar
     7    5    7 1
     8    6   23 1
     9    7   17 am
    10    7   19 2
    11    8   13 1
    12    8   18 am
    13    8   20 2
    14    9   15 1
    15   10   15 1
    16   11   12 1
    17   11   14 1
    18   12   22 1
    19   13   14 1
    20   13   21 1
    21   14   16 1
    22   15   22 1
    23   17   18 1
    24    1   24 1
    25    2   25 1
    26    3   26 1
    27    4   27 1
    28    9   28 1
    29    9   29 1
    30    9   30 1
    31   10   31 1
    32   10   32 1
    33   10   33 1
    34   11   34 1
    35   11   35 1
    36   12   36 1
    37   12   37 1
    38   13   38 1
    39   14   39 1
    40   15   40 1
    41   16   41 1
    42   16   42 1
    43   17   43 1
    44   18   44 1
    45   21   45 1
@<TRIPOS>MOLECULE
LIGAND
   45    45     0     0     0
SMALL
NO_CHARGES

@<TRIPOS>ATOM
      1 C1         -0.7874   -0.7484    8.5279 C.ar      1 <0>         0.0000
      2 C2         -0.4100   -0.4763    7.2130 C.ar      1 <0>         0.0000
      3 C3         -1.6489   -1.8111    8.8006 C.ar      1 <0>         0.0000
      4 C4         -1.7555   -2.3295    6.4433 C.ar      1 <0>         0.0000
      5 C5         -0.8940   -1.2668    6.1707 C.ar      1 <0>         0.0000
      6 C6         -2.1330   -2.6016    7.7583 C.ar      1 <0>         0.0000
      7 C7         -0.4919   -0.9759    4.7701 C.2       1 <0>         0.0000
      8 C8          1.9325   -1.0133    2.6768 C.2       1 <0>         0.0000
      9 C9          4.6590    3.8060   -3.6175 C.3       1 <0>         0.0000
     10 C10         2.7384    4.5764   -2.1830 C.3       1 <0>         0.0000
     11 C11         1.5761    0.1765   -1.0474 C.3       1 <0>         0.0000
     12 C12         2.3784    1.4800   -1.1273 C.3       1 <0>         0.0000
     13 C13         2.3649   -0.5352    1.2935 C.3       1 <0>         0.0000
     14 C14         1.1534   -0.2750    0.3710 C.3       1 <0>         0.0000
     15 C15         3.7349    3.4566   -2.4572 C.3       1 <0>         0.0000
     16 N1          0.3597   -1.5080    0.3138 N.3       1 <0>         0.0000
     17 N2          0.7320   -0.3536    4.6161 N.am      1 <0>         0.0000
     18 N3          1.1743   -0.0714    3.3469 N.am      1 <0>         0.0000
     19 O1         -1.2351   -1.3059    3.8493 O.2       1 <0>         0.0000
     20 O2          2.2555   -2.1109    3.1269 O.2       1 <0>         0.0000
     21 O3          3.2186   -1.5159    0.7230 O.3       1 <0>         0.0000
     22 S1          2.8465    1.9264   -2.8249 S.3       1 <0>         0.0000
     23 Cl1        -3.1956   -3.9130    8.0955 Cl        1 <0>         0.0000
     24 H1         -0.4102   -0.1330    9.3393 H         1 <0>         0.0000
     25 H2          0.2618    0.3545    7.0131 H         1 <0>         0.0000
     26 H3         -1.9343   -2.0111    9.8301 H         1 <0>         0.0000
     27 H4         -2.1312   -2.9448    5.6282 H         1 <0>         0.0000
     28 H5          4.0760    3.9846   -4.5280 H         1 <0>         0.0000
     29 H6          5.2297    4.7186   -3.4120 H         1 <0>         0.0000
     30 H7          5.3674    2.9982   -3.8338 H         1 <0>         0.0000
     31 H8          2.1258    4.7669   -3.0714 H         1 <0>         0.0000
     32 H9          3.2495    5.5128   -1.9328 H         1 <0>         0.0000
     33 H10         2.0576    4.3258   -1.3615 H         1 <0>         0.0000
     34 H11         2.1843   -0.6108   -1.5125 H         1 <0>         0.0000
     35 H12         0.6847    0.2765   -1.6798 H         1 <0>         0.0000
     36 H13         3.3029    1.3655   -0.5514 H         1 <0>         0.0000
     37 H14         1.8267    2.3139   -0.6838 H         1 <0>         0.0000
     38 H15         2.9484    0.3859    1.4229 H         1 <0>         0.0000
     39 H16         0.5249    0.4957    0.8291 H         1 <0>         0.0000
     40 H17         4.3362    3.2822   -1.5586 H         1 <0>         0.0000
     41 H18        -0.4842   -1.3249   -0.2178 H         1 <0>         0.0000
     42 H19         0.0690   -1.7492    1.2550 H         1 <0>         0.0000
     43 H20         1.2931   -0.1098    5.4249 H         1 <0>         0.0000
     44 H21         0.9480    0.8148    2.9078 H         1 <0>         0.0000
     45 H22         2.7041   -2.3378    0.6655 H         1 <0>         0.0000
@<TRIPOS>BOND
     1    1    2 ar
     2    1    3 ar
     3    2    5 ar
     4    3    6 ar
     5    4    5 ar
     6    4    6 ar
     7    5    7 1
     8    6   23 1
     9    7   17 am
    10    7   19 2
    11    8   13 1
    12    8   18 am
    13    8   20 2
    14    9   15 1
    15   10   15 1
    16   11   12 1
    17   11   14 1
    18   12   22 1
    19   13   14 1
    20   13   21 1
    21   14   16 1
    22   15   22 1
    23   17   18 1
    24    1   24 1
    25    2   25 1
    26    3   26 1
    27    4   27 1
    28    9   28 1
    29    9   29 1
    30    9   30 1
    31   10   31 1
    32   10   32 1
    33   10   33 1
    34   11   34 1
    35   11   35 1
    36   12   36 1
    37   12   37 1
    38   13   38 1
    39   14   39 1
    40   15   40 1
    41   16   41 1
    42   16   42 1
    43   17   43 1
    44   18   44 1
    45   21   45 1
@<TRIPOS>MOLECULE
LIGAND
   45    45     0     0     0
SMALL
NO_CHARGES

@<TRIPOS>ATOM
      1 C1         -0.9982   -4.7984    7.0345 C.ar      1 <0>         0.0000
      2 C2         -0.5646   -4.1991    5.8520 C.ar      1 <0>         0.0000
      3 C3         -1.8801   -4.1214    7.8770 C.ar      1 <0>         0.0000
      4 C4         -1.8946   -2.2457    6.3543 C.ar      1 <0>         0.0000
      5 C5         -1.0128   -2.9227    5.5119 C.ar      1 <0>         0.0000
      6 C6         -2.3282   -2.8450    7.5369 C.ar      1 <0>         0.0000
      7 C7         -0.5498   -2.2848    4.2523 C.2       1 <0>         0.0000
      8 C8          1.9325   -1.0133    2.6768 C.2       1 <0>         0.0000
      9 C9         -4.5752    3.1779    0.0331 C.3       1 <0>         0.0000
     10 C10        -2.7668    3.3107   -1.7140 C.3       1 <0>         0.0000
     11 C11         0.2195    0.8307    0.9188 C.3       1 <0>         0.0000
     12 C12        -1.0001    1.1700    0.0549 C.3       1 <0>         0.0000
     13 C13         2.3649   -0.5352    1.2935 C.3       1 <0>         0.0000
     14 C14         1.1534   -0.2750    0.3710 C.3       1 <0>         0.0000
     15 C15        -3.3066    2.5373   -0.5169 C.3       1 <0>         0.0000
     16 N1          1.6681    0.0834   -0.9557 N.3       1 <0>         0.0000
     17 N2          0.6851   -2.6985    3.7909 N.am      1 <0>         0.0000
     18 N3          1.1665   -2.1628    2.6216 N.am      1 <0>         0.0000
     19 O1         -1.2703   -1.4609    3.6944 O.2       1 <0>         0.0000
     20 O2          2.2299   -0.4108    3.7066 O.2       1 <0>         0.0000
     21 O3          3.2186   -1.5159    0.7230 O.3       1 <0>         0.0000
     22 S1         -2.0492    2.4644    0.7791 S.3       1 <0>         0.0000
     23 Cl1        -3.4168   -2.0104    8.5766 Cl        1 <0>         0.0000
     24 H1         -0.6495   -5.7923    7.2990 H         1 <0>         0.0000
     25 H2          0.1227   -4.7366    5.2037 H         1 <0>         0.0000
     26 H3         -2.2094   -4.6010    8.7951 H         1 <0>         0.0000
     27 H4         -2.2430   -1.2503    6.0862 H         1 <0>         0.0000
     28 H5         -4.3764    4.2092    0.3452 H         1 <0>         0.0000
     29 H6         -5.3650    3.2137   -0.7256 H         1 <0>         0.0000
     30 H7         -4.9604    2.6385    0.9059 H         1 <0>         0.0000
     31 H8         -2.5401    4.3441   -1.4288 H         1 <0>         0.0000
     32 H9         -3.5004    3.3505   -2.5268 H         1 <0>         0.0000
     33 H10        -1.8438    2.8672   -2.1048 H         1 <0>         0.0000
     34 H11        -0.1531    0.5335    1.9082 H         1 <0>         0.0000
     35 H12         0.7975    1.7493    1.0822 H         1 <0>         0.0000
     36 H13        -1.6176    0.2727   -0.0585 H         1 <0>         0.0000
     37 H14        -0.7009    1.4813   -0.9501 H         1 <0>         0.0000
     38 H15         2.9484    0.3859    1.4229 H         1 <0>         0.0000
     39 H16         0.5915   -1.2082    0.2610 H         1 <0>         0.0000
     40 H17        -3.5264    1.5088   -0.8227 H         1 <0>         0.0000
     41 H18         0.8845    0.1717   -1.5934 H         1 <0>         0.0000
     42 H19         2.2416   -0.6802   -1.2969 H         1 <0>         0.0000
     43 H20         1.2257   -3.3847    4.3060 H         1 <0>         0.0000
     44 H21         0.9630   -2.6038    1.7309 H         1 <0>         0.0000
     45 H22         2.7041   -2.3378    0.6655 H         1 <0>         0.0000
@<TRIPOS>BOND
     1    1    2 ar
     2    1    3 ar
     3    2    5 ar
     4    3    6 ar
     5    4    5 ar
     6    4    6 ar
     7    5    7 1
     8    6   23 1
     9    7   17 am
    10    7   19 2
    11    8   13 1
    12    8   18 am
    13    8   20 2
    14    9   15 1
    15   10   15 1
    16   11   12 1
    17   11   14 1
    18   12   22 1
    19   13   14 1
    20   13   21 1
    21   14   16 1
    22   15   22 1
    23   17   18 1
    24    1   24 1
    25    2   25 1
    26    3   26 1
    27    4   27 1
    28    9   28 1
    29    9   29 1
    30    9   30 1
    31   10   31 1
    32   10   32 1
    33   10   33 1
    34   11   34 1
    35   11   35 1
    36   12   36 1
    37   12   37 1
    38   13   38 1
    39   14   39 1
    40   15   40 1
    41   16   41 1
    42   16   42 1
    43   17   43 1
    44   18   44 1
    45   21   45 1
@<TRIPOS>MOLECULE
LIGAND
   45    45     0     0     0
SMALL
NO_CHARGES

@<TRIPOS>ATOM
      1 C1         -1.7183   -0.4637    8.5029 C.ar      1 <0>         0.0000
      2 C2         -1.4200   -0.1538    7.1760 C.ar      1 <0>         0.0000
      3 C3         -0.8331   -1.2363    9.2547 C.ar      1 <0>         0.0000
      4 C4          0.6487   -1.3893    7.3526 C.ar      1 <0>         0.0000
      5 C5         -0.2366   -0.6167    6.6009 C.ar      1 <0>         0.0000
      6 C6          0.3503   -1.6991    8.6795 C.ar      1 <0>         0.0000
      7 C7          0.0801   -0.2867    5.1871 C.2       1 <0>         0.0000
      8 C8          1.9325   -1.0133    2.6768 C.2       1 <0>         0.0000
      9 C9         -1.3321   -3.2415   -3.4235 C.3       1 <0>         0.0000
     10 C10         0.8182   -2.2457   -4.2751 C.3       1 <0>         0.0000
     11 C11         0.2728   -1.5333    0.1821 C.3       1 <0>         0.0000
     12 C12        -0.9662   -1.3605   -0.7034 C.3       1 <0>         0.0000
     13 C13         2.3649   -0.5352    1.2935 C.3       1 <0>         0.0000
     14 C14         1.1534   -0.2750    0.3710 C.3       1 <0>         0.0000
     15 C15        -0.0858   -2.4416   -3.0639 C.3       1 <0>         0.0000
     16 N1          0.3761    0.8265    0.9508 N.3       1 <0>         0.0000
     17 N2          1.4238   -0.2520    4.8674 N.am      1 <0>         0.0000
     18 N3          1.7877    0.0290    3.5734 N.am      1 <0>         0.0000
     19 O1         -0.8375   -0.0833    4.3961 O.2       1 <0>         0.0000
     20 O2          1.7602   -2.2018    2.9407 O.2       1 <0>         0.0000
     21 O3          3.2186   -1.5159    0.7230 O.3       1 <0>         0.0000
     22 S1         -0.5659   -0.8328   -2.3950 S.3       1 <0>         0.0000
     23 Cl1         1.4424   -2.6521    9.6079 Cl        1 <0>         0.0000
     24 H1         -2.6397   -0.1029    8.9506 H         1 <0>         0.0000
     25 H2         -2.1177    0.4490    6.6003 H         1 <0>         0.0000
     26 H3         -1.0790   -1.4697   10.2874 H         1 <0>         0.0000
     27 H4          1.5714   -1.7486    6.9015 H         1 <0>         0.0000
     28 H5         -1.9025   -2.7267   -4.2047 H         1 <0>         0.0000
     29 H6         -1.0716   -4.2331   -3.8102 H         1 <0>         0.0000
     30 H7         -1.9972   -3.3715   -2.5621 H         1 <0>         0.0000
     31 H8          0.2808   -1.7156   -5.0694 H         1 <0>         0.0000
     32 H9          1.1454   -3.2064   -4.6881 H         1 <0>         0.0000
     33 H10         1.7084   -1.6554   -4.0296 H         1 <0>         0.0000
     34 H11         0.8786   -2.3375   -0.2566 H         1 <0>         0.0000
     35 H12        -0.0491   -1.9048    1.1634 H         1 <0>         0.0000
     36 H13        -1.6137   -0.5937   -0.2651 H         1 <0>         0.0000
     37 H14        -1.5515   -2.2833   -0.7522 H         1 <0>         0.0000
     38 H15         2.9484    0.3859    1.4229 H         1 <0>         0.0000
     39 H16         1.5222    0.0640   -0.6025 H         1 <0>         0.0000
     40 H17         0.4693   -2.9722   -2.2830 H         1 <0>         0.0000
     41 H18        -0.3732    1.0655    0.3105 H         1 <0>         0.0000
     42 H19         0.9747    1.6420    1.0220 H         1 <0>         0.0000
     43 H20         2.1281   -0.4306    5.5750 H         1 <0>         0.0000
     44 H21         1.9478    0.9869    3.2798 H         1 <0>         0.0000
     45 H22         2.7041   -2.3378    0.6655 H         1 <0>         0.0000
@<TRIPOS>BOND
     1    1    2 ar
     2    1    3 ar
     3    2    5 ar
     4    3    6 ar
     5    4    5 ar
     6    4    6 ar
     7    5    7 1
     8    6   23 1
     9    7   17 am
    10    7   19 2
    11    8   13 1
    12    8   18 am
    13    8   20 2
    14    9   15 1
    15   10   15 1
    16   11   12 1
    17   11   14 1
    18   12   22 1
    19   13   14 1
    20   13   21 1
    21   14   16 1
    22   15   22 1
    23   17   18 1
    24    1   24 1
    25    2   25 1
    26    3   26 1
    27    4   27 1
    28    9   28 1
    29    9   29 1
    30    9   30 1
    31   10   31 1
    32   10   32 1
    33   10   33 1
    34   11   34 1
    35   11   35 1
    36   12   36 1
    37   12   37 1
    38   13   38 1
    39   14   39 1
    40   15   40 1
    41   16   41 1
    42   16   42 1
    43   17   43 1
    44   18   44 1
    45   21   45 1
@<TRIPOS>MOLECULE
LIGAND
   45    45     0     0     0
SMALL
NO_CHARGES

@<TRIPOS>ATOM
      1 C1          0.3862   -0.6315    8.9351 C.ar      1 <0>         0.0000
      2 C2          0.6829   -0.3226    7.6077 C.ar      1 <0>         0.0000
      3 C3         -0.8301   -1.2346    9.2558 C.ar      1 <0>         0.0000
      4 C4         -1.4528   -1.2197    6.9215 C.ar      1 <0>         0.0000
      5 C5         -0.2366   -0.6167    6.6009 C.ar      1 <0>         0.0000
      6 C6         -1.7496   -1.5286    8.2490 C.ar      1 <0>         0.0000
      7 C7          0.0801   -0.2867    5.1871 C.2       1 <0>         0.0000
      8 C8          1.9325   -1.0133    2.6768 C.2       1 <0>         0.0000
      9 C9         -1.3321   -3.2415   -3.4235 C.3       1 <0>         0.0000
     10 C10         0.8182   -2.2457   -4.2751 C.3       1 <0>         0.0000
     11 C11         0.2728   -1.5333    0.1821 C.3       1 <0>         0.0000
     12 C12        -0.9662   -1.3605   -0.7034 C.3       1 <0>         0.0000
     13 C13         2.3649   -0.5352    1.2935 C.3       1 <0>         0.0000
     14 C14         1.1534   -0.2750    0.3710 C.3       1 <0>         0.0000
     15 C15        -0.0858   -2.4416   -3.0639 C.3       1 <0>         0.0000
     16 N1          0.3761    0.8265    0.9508 N.3       1 <0>         0.0000
     17 N2          1.4238   -0.2520    4.8674 N.am      1 <0>         0.0000
     18 N3          1.7877    0.0290    3.5734 N.am      1 <0>         0.0000
     19 O1         -0.8375   -0.0833    4.3961 O.2       1 <0>         0.0000
     20 O2          1.7602   -2.2018    2.9407 O.2       1 <0>         0.0000
     21 O3          3.2186   -1.5159    0.7230 O.3       1 <0>         0.0000
     22 S1         -0.5659   -0.8328   -2.3950 S.3       1 <0>         0.0000
     23 Cl1        -3.2499   -2.2732    8.6452 Cl        1 <0>         0.0000
     24 H1          1.1023   -0.4028    9.7188 H         1 <0>         0.0000
     25 H2          1.6339    0.1473    7.3703 H         1 <0>         0.0000
     26 H3         -1.0475   -1.4695   10.2945 H         1 <0>         0.0000
     27 H4         -2.1680   -1.4485    6.1339 H         1 <0>         0.0000
     28 H5         -1.9025   -2.7267   -4.2047 H         1 <0>         0.0000
     29 H6         -1.0716   -4.2331   -3.8102 H         1 <0>         0.0000
     30 H7         -1.9972   -3.3715   -2.5621 H         1 <0>         0.0000
     31 H8          0.2808   -1.7156   -5.0694 H         1 <0>         0.0000
     32 H9          1.1454   -3.2064   -4.6881 H         1 <0>         0.0000
     33 H10         1.7084   -1.6554   -4.0296 H         1 <0>         0.0000
     34 H11         0.8786   -2.3375   -0.2566 H         1 <0>         0.0000
     35 H12        -0.0491   -1.9048    1.1634 H         1 <0>         0.0000
     36 H13        -1.6137   -0.5937   -0.2651 H         1 <0>         0.0000
     37 H14        -1.5515   -2.2833   -0.7522 H         1 <0>         0.0000
     38 H15         2.9484    0.3859    1.4229 H         1 <0>         0.0000
     39 H16         1.5222    0.0640   -0.6025 H         1 <0>         0.0000
     40 H17         0.4693   -2.9722   -2.2830 H         1 <0>         0.0000
     41 H18        -0.3732    1.0655    0.3105 H         1 <0>         0.0000
     42 H19         0.9747    1.6420    1.0220 H         1 <0>         0.0000
     43 H20         2.1281   -0.4306    5.5750 H         1 <0>         0.0000
     44 H21         1.9478    0.9869    3.2798 H         1 <0>         0.0000
     45 H22         2.7041   -2.3378    0.6655 H         1 <0>         0.0000
@<TRIPOS>BOND
     1    1    2 ar
     2    1    3 ar
     3    2    5 ar
     4    3    6 ar
     5    4    5 ar
     6    4    6 ar
     7    5    7 1
     8    6   23 1
     9    7   17 am
    10    7   19 2
    11    8   13 1
    12    8   18 am
    13    8   20 2
    14    9   15 1
    15   10   15 1
    16   11   12 1
    17   11   14 1
    18   12   22 1
    19   13   14 1
    20   13   21 1
    21   14   16 1
    22   15   22 1
    23   17   18 1
    24    1   24 1
    25    2   25 1
    26    3   26 1
    27    4   27 1
    28    9   28 1
    29    9   29 1
    30    9   30 1
    31   10   31 1
    32   10   32 1
    33   10   33 1
    34   11   34 1
    35   11   35 1
    36   12   36 1
    37   12   37 1
    38   13   38 1
    39   14   39 1
    40   15   40 1
    41   16   41 1
    42   16   42 1
    43   17   43 1
    44   18   44 1
    45   21   45 1
@<TRIPOS>MOLECULE
LIGAND
   45    45     0     0     0
SMALL
NO_CHARGES

@<TRIPOS>ATOM
      1 C1          3.3674   -3.8174    8.8247 C.ar      1 <0>         0.0000
      2 C2          3.6347   -3.4983    7.4934 C.ar      1 <0>         0.0000
      3 C3          2.2539   -3.2710    9.4629 C.ar      1 <0>         0.0000
      4 C4          1.6751   -2.0863    7.4384 C.ar      1 <0>         0.0000
      5 C5          2.7886   -2.6327    6.8003 C.ar      1 <0>         0.0000
      6 C6          1.4078   -2.4054    8.7697 C.ar      1 <0>         0.0000
      7 C7          3.0744   -2.2928    5.3823 C.2       1 <0>         0.0000
      8 C8          1.9325   -1.0133    2.6768 C.2       1 <0>         0.0000
      9 C9         -3.5456    2.3208    3.0565 C.3       1 <0>         0.0000
     10 C10        -4.0220    0.6377    1.2453 C.3       1 <0>         0.0000
     11 C11         0.2195    0.8307    0.9188 C.3       1 <0>         0.0000
     12 C12        -1.0001    1.1700    0.0549 C.3       1 <0>         0.0000
     13 C13         2.3649   -0.5352    1.2935 C.3       1 <0>         0.0000
     14 C14         1.1534   -0.2750    0.3710 C.3       1 <0>         0.0000
     15 C15        -2.9459    1.4397    1.9673 C.3       1 <0>         0.0000
     16 N1          1.6681    0.0834   -0.9557 N.3       1 <0>         0.0000
     17 N2          2.6023   -1.0670    4.9540 N.am      1 <0>         0.0000
     18 N3          2.8469   -0.6810    3.6590 N.am      1 <0>         0.0000
     19 O1          3.7083   -3.0847    4.6892 O.2       1 <0>         0.0000
     20 O2          0.8915   -1.6405    2.8632 O.2       1 <0>         0.0000
     21 O3          3.2186   -1.5159    0.7230 O.3       1 <0>         0.0000
     22 S1         -2.0492    2.4644    0.7791 S.3       1 <0>         0.0000
     23 Cl1         0.0337   -1.7319    9.5577 Cl        1 <0>         0.0000
     24 H1          4.0262   -4.4916    9.3641 H         1 <0>         0.0000
     25 H2          4.5055   -3.9303    7.0070 H         1 <0>         0.0000
     26 H3          2.0583   -3.5288   10.5005 H         1 <0>         0.0000
     27 H4          1.0164   -1.4117    6.8951 H         1 <0>         0.0000
     28 H5         -4.2705    3.0197    2.6246 H         1 <0>         0.0000
     29 H6         -4.0763    1.7229    3.8059 H         1 <0>         0.0000
     30 H7         -2.7806    2.9152    3.5690 H         1 <0>         0.0000
     31 H8         -4.7543    1.3108    0.7855 H         1 <0>         0.0000
     32 H9         -4.5673   -0.0125    1.9385 H         1 <0>         0.0000
     33 H10        -3.6015    0.0146    0.4477 H         1 <0>         0.0000
     34 H11        -0.1531    0.5335    1.9082 H         1 <0>         0.0000
     35 H12         0.7975    1.7493    1.0822 H         1 <0>         0.0000
     36 H13        -1.6176    0.2727   -0.0585 H         1 <0>         0.0000
     37 H14        -0.7009    1.4813   -0.9501 H         1 <0>         0.0000
     38 H15         2.9484    0.3859    1.4229 H         1 <0>         0.0000
     39 H16         0.5915   -1.2082    0.2610 H         1 <0>         0.0000
     40 H17        -2.2253    0.7496    2.4190 H         1 <0>         0.0000
     41 H18         0.8845    0.1717   -1.5934 H         1 <0>         0.0000
     42 H19         2.2416   -0.6802   -1.2969 H         1 <0>         0.0000
     43 H20         2.0849   -0.4638    5.5841 H         1 <0>         0.0000
     44 H21         3.6858   -0.1599    3.4266 H         1 <0>         0.0000
     45 H22         2.7041   -2.3378    0.6655 H         1 <0>         0.0000
@<TRIPOS>BOND
     1    1    2 ar
     2    1    3 ar
     3    2    5 ar
     4    3    6 ar
     5    4    5 ar
     6    4    6 ar
     7    5    7 1
     8    6   23 1
     9    7   17 am
    10    7   19 2
    11    8   13 1
    12    8   18 am
    13    8   20 2
    14    9   15 1
    15   10   15 1
    16   11   12 1
    17   11   14 1
    18   12   22 1
    19   13   14 1
    20   13   21 1
    21   14   16 1
    22   15   22 1
    23   17   18 1
    24    1   24 1
    25    2   25 1
    26    3   26 1
    27    4   27 1
    28    9   28 1
    29    9   29 1
    30    9   30 1
    31   10   31 1
    32   10   32 1
    33   10   33 1
    34   11   34 1
    35   11   35 1
    36   12   36 1
    37   12   37 1
    38   13   38 1
    39   14   39 1
    40   15   40 1
    41   16   41 1
    42   16   42 1
    43   17   43 1
    44   18   44 1
    45   21   45 1
@<TRIPOS>MOLECULE
LIGAND
   45    45     0     0     0
SMALL
NO_CHARGES

@<TRIPOS>ATOM
      1 C1          1.1782   -5.1016    7.9278 C.ar      1 <0>         0.0000
      2 C2          1.7191   -4.6144    6.7380 C.ar      1 <0>         0.0000
      3 C3         -0.2050   -5.1246    8.1072 C.ar      1 <0>         0.0000
      4 C4         -0.5061   -4.1728    5.9071 C.ar      1 <0>         0.0000
      5 C5          0.8770   -4.1499    5.7277 C.ar      1 <0>         0.0000
      6 C6         -1.0471   -4.6601    7.0968 C.ar      1 <0>         0.0000
      7 C7          1.4542   -3.6304    4.4609 C.2       1 <0>         0.0000
      8 C8          1.9325   -1.0133    2.6768 C.2       1 <0>         0.0000
      9 C9         -4.1299   -0.4675   -2.0276 C.3       1 <0>         0.0000
     10 C10        -4.2566    1.4118   -0.3565 C.3       1 <0>         0.0000
     11 C11         0.2195    0.8307    0.9188 C.3       1 <0>         0.0000
     12 C12        -1.0001    1.1700    0.0549 C.3       1 <0>         0.0000
     13 C13         2.3649   -0.5352    1.2935 C.3       1 <0>         0.0000
     14 C14         1.1534   -0.2750    0.3710 C.3       1 <0>         0.0000
     15 C15        -3.3416    0.5718   -1.2395 C.3       1 <0>         0.0000
     16 N1          1.6681    0.0834   -0.9557 N.3       1 <0>         0.0000
     17 N2          0.6851   -2.6985    3.7909 N.am      1 <0>         0.0000
     18 N3          1.1665   -2.1628    2.6216 N.am      1 <0>         0.0000
     19 O1          2.5559   -4.0300    4.0926 O.2       1 <0>         0.0000
     20 O2          2.2299   -0.4108    3.7066 O.2       1 <0>         0.0000
     21 O3          3.2186   -1.5159    0.7230 O.3       1 <0>         0.0000
     22 S1         -2.0977   -0.2515   -0.2193 S.3       1 <0>         0.0000
     23 Cl1        -2.7537   -4.6891    7.3187 Cl        1 <0>         0.0000
     24 H1          1.8340   -5.4635    8.7141 H         1 <0>         0.0000
     25 H2          2.7985   -4.6015    6.6100 H         1 <0>         0.0000
     26 H3         -0.6121   -5.5071    9.0396 H         1 <0>         0.0000
     27 H4         -1.1607   -3.8103    5.1170 H         1 <0>         0.0000
     28 H5         -4.6663   -1.1363   -1.3453 H         1 <0>         0.0000
     29 H6         -4.8772    0.0053   -2.6747 H         1 <0>         0.0000
     30 H7         -3.4774   -1.0886   -2.6519 H         1 <0>         0.0000
     31 H8         -4.7949    0.7719    0.3515 H         1 <0>         0.0000
     32 H9         -5.0077    1.9429   -0.9517 H         1 <0>         0.0000
     33 H10        -3.6957    2.1500    0.2280 H         1 <0>         0.0000
     34 H11        -0.1531    0.5335    1.9082 H         1 <0>         0.0000
     35 H12         0.7975    1.7493    1.0822 H         1 <0>         0.0000
     36 H13        -0.6573    1.5138   -0.9268 H         1 <0>         0.0000
     37 H14        -1.5832    1.9849    0.4933 H         1 <0>         0.0000
     38 H15         2.9484    0.3859    1.4229 H         1 <0>         0.0000
     39 H16         0.5915   -1.2082    0.2610 H         1 <0>         0.0000
     40 H17        -2.8138    1.2291   -1.9386 H         1 <0>         0.0000
     41 H18         0.8845    0.1717   -1.5934 H         1 <0>         0.0000
     42 H19         2.2416   -0.6802   -1.2969 H         1 <0>         0.0000
     43 H20        -0.2179   -2.4154    4.1557 H         1 <0>         0.0000
     44 H21         0.9630   -2.6038    1.7309 H         1 <0>         0.0000
     45 H22         2.7041   -2.3378    0.6655 H         1 <0>         0.0000
@<TRIPOS>BOND
     1    1    2 ar
     2    1    3 ar
     3    2    5 ar
     4    3    6 ar
     5    4    5 ar
     6    4    6 ar
     7    5    7 1
     8    6   23 1
     9    7   17 am
    10    7   19 2
    11    8   13 1
    12    8   18 am
    13    8   20 2
    14    9   15 1
    15   10   15 1
    16   11   12 1
    17   11   14 1
    18   12   22 1
    19   13   14 1
    20   13   21 1
    21   14   16 1
    22   15   22 1
    23   17   18 1
    24    1   24 1
    25    2   25 1
    26    3   26 1
    27    4   27 1
    28    9   28 1
    29    9   29 1
    30    9   30 1
    31   10   31 1
    32   10   32 1
    33   10   33 1
    34   11   34 1
    35   11   35 1
    36   12   36 1
    37   12   37 1
    38   13   38 1
    39   14   39 1
    40   15   40 1
    41   16   41 1
    42   16   42 1
    43   17   43 1
    44   18   44 1
    45   21   45 1
@<TRIPOS>MOLECULE
LIGAND
   45    45     0     0     0
SMALL
NO_CHARGES

@<TRIPOS>ATOM
      1 C1         -1.7183   -0.4637    8.5029 C.ar      1 <0>         0.0000
      2 C2         -1.4200   -0.1538    7.1760 C.ar      1 <0>         0.0000
      3 C3         -0.8331   -1.2363    9.2547 C.ar      1 <0>         0.0000
      4 C4          0.6487   -1.3893    7.3526 C.ar      1 <0>         0.0000
      5 C5         -0.2366   -0.6167    6.6009 C.ar      1 <0>         0.0000
      6 C6          0.3503   -1.6991    8.6795 C.ar      1 <0>         0.0000
      7 C7          0.0801   -0.2867    5.1871 C.2       1 <0>         0.0000
      8 C8          1.9325   -1.0133    2.6768 C.2       1 <0>         0.0000
      9 C9         -3.9971   -1.8615    0.5747 C.3       1 <0>         0.0000
     10 C10        -3.2820   -4.2232    1.0762 C.3       1 <0>         0.0000
     11 C11         0.2728   -1.5333    0.1821 C.3       1 <0>         0.0000
     12 C12        -0.9662   -1.3605   -0.7034 C.3       1 <0>         0.0000
     13 C13         2.3649   -0.5352    1.2935 C.3       1 <0>         0.0000
     14 C14         1.1534   -0.2750    0.3710 C.3       1 <0>         0.0000
     15 C15        -2.8207   -2.8235    0.6883 C.3       1 <0>         0.0000
     16 N1          0.3761    0.8265    0.9508 N.3       1 <0>         0.0000
     17 N2          1.4238   -0.2520    4.8674 N.am      1 <0>         0.0000
     18 N3          1.7877    0.0290    3.5734 N.am      1 <0>         0.0000
     19 O1         -0.8375   -0.0833    4.3961 O.2       1 <0>         0.0000
     20 O2          1.7602   -2.2018    2.9407 O.2       1 <0>         0.0000
     21 O3          3.2186   -1.5159    0.7230 O.3       1 <0>         0.0000
     22 S1         -1.9323   -2.8885   -0.8842 S.3       1 <0>         0.0000
     23 Cl1         1.4424   -2.6521    9.6079 Cl        1 <0>         0.0000
     24 H1         -2.6397   -0.1029    8.9506 H         1 <0>         0.0000
     25 H2         -2.1177    0.4490    6.6003 H         1 <0>         0.0000
     26 H3         -1.0790   -1.4697   10.2874 H         1 <0>         0.0000
     27 H4          1.5714   -1.7486    6.9015 H         1 <0>         0.0000
     28 H5         -4.7074   -2.2163   -0.1804 H         1 <0>         0.0000
     29 H6         -4.5413   -1.7835    1.5226 H         1 <0>         0.0000
     30 H7         -3.6763   -0.8564    0.2780 H         1 <0>         0.0000
     31 H8         -3.9813   -4.6143    0.3288 H         1 <0>         0.0000
     32 H9         -3.8039   -4.2184    2.0397 H         1 <0>         0.0000
     33 H10        -2.4439   -4.9263    1.1424 H         1 <0>         0.0000
     34 H11         0.8786   -2.3375   -0.2566 H         1 <0>         0.0000
     35 H12        -0.0491   -1.9048    1.1634 H         1 <0>         0.0000
     36 H13        -0.6485   -1.0529   -1.7052 H         1 <0>         0.0000
     37 H14        -1.6218   -0.5733   -0.3201 H         1 <0>         0.0000
     38 H15         2.9484    0.3859    1.4229 H         1 <0>         0.0000
     39 H16         1.5222    0.0640   -0.6025 H         1 <0>         0.0000
     40 H17        -2.1237   -2.4514    1.4468 H         1 <0>         0.0000
     41 H18        -0.3732    1.0655    0.3105 H         1 <0>         0.0000
     42 H19         0.9747    1.6420    1.0220 H         1 <0>         0.0000
     43 H20         2.1281   -0.4306    5.5750 H         1 <0>         0.0000
     44 H21         1.9478    0.9869    3.2798 H         1 <0>         0.0000
     45 H22         2.7041   -2.3378    0.6655 H         1 <0>         0.0000
@<TRIPOS>BOND
     1    1    2 ar
     2    1    3 ar
     3    2    5 ar
     4    3    6 ar
     5    4    5 ar
     6    4    6 ar
     7    5    7 1
     8    6   23 1
     9    7   17 am
    10    7   19 2
    11    8   13 1
    12    8   18 am
    13    8   20 2
    14    9   15 1
    15   10   15 1
    16   11   12 1
    17   11   14 1
    18   12   22 1
    19   13   14 1
    20   13   21 1
    21   14   16 1
    22   15   22 1
    23   17   18 1
    24    1   24 1
    25    2   25 1
    26    3   26 1
    27    4   27 1
    28    9   28 1
    29    9   29 1
    30    9   30 1
    31   10   31 1
    32   10   32 1
    33   10   33 1
    34   11   34 1
    35   11   35 1
    36   12   36 1
    37   12   37 1
    38   13   38 1
    39   14   39 1
    40   15   40 1
    41   16   41 1
    42   16   42 1
    43   17   43 1
    44   18   44 1
    45   21   45 1
@<TRIPOS>MOLECULE
LIGAND
   45    45     0     0     0
SMALL
NO_CHARGES

@<TRIPOS>ATOM
      1 C1          1.3200   -1.9638    8.8676 C.ar      1 <0>         0.0000
      2 C2          1.6218   -1.5213    7.5797 C.ar      1 <0>         0.0000
      3 C3          2.1606   -1.6378    9.9320 C.ar      1 <0>         0.0000
      4 C4          3.6050   -0.4271    8.4204 C.ar      1 <0>         0.0000
      5 C5          2.7643   -0.7530    7.3561 C.ar      1 <0>         0.0000
      6 C6          3.3031   -0.8695    9.7084 C.ar      1 <0>         0.0000
      7 C7          3.0854   -0.2826    5.9837 C.2       1 <0>         0.0000
      8 C8          1.9325   -1.0133    2.6768 C.2       1 <0>         0.0000
      9 C9         -2.4695    4.5098    0.4722 C.3       1 <0>         0.0000
     10 C10        -0.2177    4.7761   -0.6229 C.3       1 <0>         0.0000
     11 C11         0.2195    0.8307    0.9188 C.3       1 <0>         0.0000
     12 C12         0.8590    2.2074    1.1305 C.3       1 <0>         0.0000
     13 C13         2.3649   -0.5352    1.2935 C.3       1 <0>         0.0000
     14 C14         1.1534   -0.2750    0.3710 C.3       1 <0>         0.0000
     15 C15        -1.1189    3.8600    0.1963 C.3       1 <0>         0.0000
     16 N1          1.6681    0.0834   -0.9557 N.3       1 <0>         0.0000
     17 N2          2.6023   -1.0670    4.9540 N.am      1 <0>         0.0000
     18 N3          2.8469   -0.6810    3.6590 N.am      1 <0>         0.0000
     19 O1          3.7293    0.7533    5.8374 O.2       1 <0>         0.0000
     20 O2          0.8915   -1.6405    2.8632 O.2       1 <0>         0.0000
     21 O3          3.2186   -1.5159    0.7230 O.3       1 <0>         0.0000
     22 S1         -0.3102    3.4478    1.7590 S.3       1 <0>         0.0000
     23 Cl1         4.3397   -0.4674   11.0222 Cl        1 <0>         0.0000
     24 H1          0.4302   -2.5616    9.0415 H         1 <0>         0.0000
     25 H2          0.9591   -1.7818    6.7584 H         1 <0>         0.0000
     26 H3          1.9126   -1.9897   10.9300 H         1 <0>         0.0000
     27 H4          4.4953    0.1729    8.2431 H         1 <0>         0.0000
     28 H5         -2.3352    5.4486    1.0211 H         1 <0>         0.0000
     29 H6         -2.9944    4.7495   -0.4593 H         1 <0>         0.0000
     30 H7         -3.1176    3.8651    1.0767 H         1 <0>         0.0000
     31 H8         -0.0488    5.7190   -0.0908 H         1 <0>         0.0000
     32 H9         -0.6728    5.0239   -1.5883 H         1 <0>         0.0000
     33 H10         0.7629    4.3240   -0.8105 H         1 <0>         0.0000
     34 H11        -0.6259    0.9652    0.2307 H         1 <0>         0.0000
     35 H12        -0.2197    0.5004    1.8688 H         1 <0>         0.0000
     36 H13         1.2423    2.5738    0.1722 H         1 <0>         0.0000
     37 H14         1.7108    2.1489    1.8142 H         1 <0>         0.0000
     38 H15         2.9484    0.3859    1.4229 H         1 <0>         0.0000
     39 H16         0.5915   -1.2082    0.2610 H         1 <0>         0.0000
     40 H17        -1.2750    2.9249   -0.3521 H         1 <0>         0.0000
     41 H18         0.8845    0.1717   -1.5934 H         1 <0>         0.0000
     42 H19         2.2416   -0.6802   -1.2969 H         1 <0>         0.0000
     43 H20         2.0769   -1.9119    5.1509 H         1 <0>         0.0000
     44 H21         3.6858   -0.1599    3.4266 H         1 <0>         0.0000
     45 H22         2.7041   -2.3378    0.6655 H         1 <0>         0.0000
@<TRIPOS>BOND
     1    1    2 ar
     2    1    3 ar
     3    2    5 ar
     4    3    6 ar
     5    4    5 ar
     6    4    6 ar
     7    5    7 1
     8    6   23 1
     9    7   17 am
    10    7   19 2
    11    8   13 1
    12    8   18 am
    13    8   20 2
    14    9   15 1
    15   10   15 1
    16   11   12 1
    17   11   14 1
    18   12   22 1
    19   13   14 1
    20   13   21 1
    21   14   16 1
    22   15   22 1
    23   17   18 1
    24    1   24 1
    25    2   25 1
    26    3   26 1
    27    4   27 1
    28    9   28 1
    29    9   29 1
    30    9   30 1
    31   10   31 1
    32   10   32 1
    33   10   33 1
    34   11   34 1
    35   11   35 1
    36   12   36 1
    37   12   37 1
    38   13   38 1
    39   14   39 1
    40   15   40 1
    41   16   41 1
    42   16   42 1
    43   17   43 1
    44   18   44 1
    45   21   45 1
@<TRIPOS>MOLECULE
LIGAND
   45    45     0     0     0
SMALL
NO_CHARGES

@<TRIPOS>ATOM
      1 C1         -1.7183   -0.4637    8.5029 C.ar      1 <0>         0.0000
      2 C2         -1.4200   -0.1538    7.1760 C.ar      1 <0>         0.0000
      3 C3         -0.8331   -1.2363    9.2547 C.ar      1 <0>         0.0000
      4 C4          0.6487   -1.3893    7.3526 C.ar      1 <0>         0.0000
      5 C5         -0.2366   -0.6167    6.6009 C.ar      1 <0>         0.0000
      6 C6          0.3503   -1.6991    8.6795 C.ar      1 <0>         0.0000
      7 C7          0.0801   -0.2867    5.1871 C.2       1 <0>         0.0000
      8 C8          1.9325   -1.0133    2.6768 C.2       1 <0>         0.0000
      9 C9         -2.9128    0.5416   -2.6174 C.3       1 <0>         0.0000
     10 C10        -2.2142   -0.8878   -4.5691 C.3       1 <0>         0.0000
     11 C11         0.2728   -1.5333    0.1821 C.3       1 <0>         0.0000
     12 C12        -0.9662   -1.3605   -0.7034 C.3       1 <0>         0.0000
     13 C13         2.3649   -0.5352    1.2935 C.3       1 <0>         0.0000
     14 C14         1.1534   -0.2750    0.3710 C.3       1 <0>         0.0000
     15 C15        -2.2483   -0.7595   -3.0509 C.3       1 <0>         0.0000
     16 N1          0.3761    0.8265    0.9508 N.3       1 <0>         0.0000
     17 N2          1.4238   -0.2520    4.8674 N.am      1 <0>         0.0000
     18 N3          1.7877    0.0290    3.5734 N.am      1 <0>         0.0000
     19 O1         -0.8375   -0.0833    4.3961 O.2       1 <0>         0.0000
     20 O2          1.7602   -2.2018    2.9407 O.2       1 <0>         0.0000
     21 O3          3.2186   -1.5159    0.7230 O.3       1 <0>         0.0000
     22 S1         -0.5659   -0.8328   -2.3950 S.3       1 <0>         0.0000
     23 Cl1         1.4424   -2.6521    9.6079 Cl        1 <0>         0.0000
     24 H1         -2.6397   -0.1029    8.9506 H         1 <0>         0.0000
     25 H2         -2.1177    0.4490    6.6003 H         1 <0>         0.0000
     26 H3         -1.0790   -1.4697   10.2874 H         1 <0>         0.0000
     27 H4          1.5714   -1.7486    6.9015 H         1 <0>         0.0000
     28 H5         -2.3709    1.4010   -3.0278 H         1 <0>         0.0000
     29 H6         -3.9445    0.6030   -2.9814 H         1 <0>         0.0000
     30 H7         -2.9253    0.6509   -1.5269 H         1 <0>         0.0000
     31 H8         -1.6616   -0.0504   -5.0096 H         1 <0>         0.0000
     32 H9         -3.2242   -0.8708   -4.9935 H         1 <0>         0.0000
     33 H10        -1.7214   -1.8125   -4.8903 H         1 <0>         0.0000
     34 H11         0.8786   -2.3375   -0.2566 H         1 <0>         0.0000
     35 H12        -0.0491   -1.9048    1.1634 H         1 <0>         0.0000
     36 H13        -1.6137   -0.5937   -0.2651 H         1 <0>         0.0000
     37 H14        -1.5515   -2.2833   -0.7522 H         1 <0>         0.0000
     38 H15         2.9484    0.3859    1.4229 H         1 <0>         0.0000
     39 H16         1.5222    0.0640   -0.6025 H         1 <0>         0.0000
     40 H17        -2.8042   -1.6046   -2.6310 H         1 <0>         0.0000
     41 H18        -0.3732    1.0655    0.3105 H         1 <0>         0.0000
     42 H19         0.9747    1.6420    1.0220 H         1 <0>         0.0000
     43 H20         2.1281   -0.4306    5.5750 H         1 <0>         0.0000
     44 H21         1.9478    0.9869    3.2798 H         1 <0>         0.0000
     45 H22         2.7041   -2.3378    0.6655 H         1 <0>         0.0000
@<TRIPOS>BOND
     1    1    2 ar
     2    1    3 ar
     3    2    5 ar
     4    3    6 ar
     5    4    5 ar
     6    4    6 ar
     7    5    7 1
     8    6   23 1
     9    7   17 am
    10    7   19 2
    11    8   13 1
    12    8   18 am
    13    8   20 2
    14    9   15 1
    15   10   15 1
    16   11   12 1
    17   11   14 1
    18   12   22 1
    19   13   14 1
    20   13   21 1
    21   14   16 1
    22   15   22 1
    23   17   18 1
    24    1   24 1
    25    2   25 1
    26    3   26 1
    27    4   27 1
    28    9   28 1
    29    9   29 1
    30    9   30 1
    31   10   31 1
    32   10   32 1
    33   10   33 1
    34   11   34 1
    35   11   35 1
    36   12   36 1
    37   12   37 1
    38   13   38 1
    39   14   39 1
    40   15   40 1
    41   16   41 1
    42   16   42 1
    43   17   43 1
    44   18   44 1
    45   21   45 1
@<TRIPOS>MOLECULE
LIGAND
   45    45     0     0     0
SMALL
NO_CHARGES

@<TRIPOS>ATOM
      1 C1          0.3862   -0.6315    8.9351 C.ar      1 <0>         0.0000
      2 C2          0.6829   -0.3226    7.6077 C.ar      1 <0>         0.0000
      3 C3         -0.8301   -1.2346    9.2558 C.ar      1 <0>         0.0000
      4 C4         -1.4528   -1.2197    6.9215 C.ar      1 <0>         0.0000
      5 C5         -0.2366   -0.6167    6.6009 C.ar      1 <0>         0.0000
      6 C6         -1.7496   -1.5286    8.2490 C.ar      1 <0>         0.0000
      7 C7          0.0801   -0.2867    5.1871 C.2       1 <0>         0.0000
      8 C8          1.9325   -1.0133    2.6768 C.2       1 <0>         0.0000
      9 C9         -2.9128    0.5416   -2.6174 C.3       1 <0>         0.0000
     10 C10        -2.2142   -0.8878   -4.5691 C.3       1 <0>         0.0000
     11 C11         0.2728   -1.5333    0.1821 C.3       1 <0>         0.0000
     12 C12        -0.9662   -1.3605   -0.7034 C.3       1 <0>         0.0000
     13 C13         2.3649   -0.5352    1.2935 C.3       1 <0>         0.0000
     14 C14         1.1534   -0.2750    0.3710 C.3       1 <0>         0.0000
     15 C15        -2.2483   -0.7595   -3.0509 C.3       1 <0>         0.0000
     16 N1          0.3761    0.8265    0.9508 N.3       1 <0>         0.0000
     17 N2          1.4238   -0.2520    4.8674 N.am      1 <0>         0.0000
     18 N3          1.7877    0.0290    3.5734 N.am      1 <0>         0.0000
     19 O1         -0.8375   -0.0833    4.3961 O.2       1 <0>         0.0000
     20 O2          1.7602   -2.2018    2.9407 O.2       1 <0>         0.0000
     21 O3          3.2186   -1.5159    0.7230 O.3       1 <0>         0.0000
     22 S1         -0.5659   -0.8328   -2.3950 S.3       1 <0>         0.0000
     23 Cl1        -3.2499   -2.2732    8.6452 Cl        1 <0>         0.0000
     24 H1          1.1023   -0.4028    9.7188 H         1 <0>         0.0000
     25 H2          1.6339    0.1473    7.3703 H         1 <0>         0.0000
     26 H3         -1.0475   -1.4695   10.2945 H         1 <0>         0.0000
     27 H4         -2.1680   -1.4485    6.1339 H         1 <0>         0.0000
     28 H5         -2.3709    1.4010   -3.0278 H         1 <0>         0.0000
     29 H6         -3.9445    0.6030   -2.9814 H         1 <0>         0.0000
     30 H7         -2.9253    0.6509   -1.5269 H         1 <0>         0.0000
     31 H8         -1.6616   -0.0504   -5.0096 H         1 <0>         0.0000
     32 H9         -3.2242   -0.8708   -4.9935 H         1 <0>         0.0000
     33 H10        -1.7214   -1.8125   -4.8903 H         1 <0>         0.0000
     34 H11         0.8786   -2.3375   -0.2566 H         1 <0>         0.0000
     35 H12        -0.0491   -1.9048    1.1634 H         1 <0>         0.0000
     36 H13        -1.6137   -0.5937   -0.2651 H         1 <0>         0.0000
     37 H14        -1.5515   -2.2833   -0.7522 H         1 <0>         0.0000
     38 H15         2.9484    0.3859    1.4229 H         1 <0>         0.0000
     39 H16         1.5222    0.0640   -0.6025 H         1 <0>         0.0000
     40 H17        -2.8042   -1.6046   -2.6310 H         1 <0>         0.0000
     41 H18        -0.3732    1.0655    0.3105 H         1 <0>         0.0000
     42 H19         0.9747    1.6420    1.0220 H         1 <0>         0.0000
     43 H20         2.1281   -0.4306    5.5750 H         1 <0>         0.0000
     44 H21         1.9478    0.9869    3.2798 H         1 <0>         0.0000
     45 H22         2.7041   -2.3378    0.6655 H         1 <0>         0.0000
@<TRIPOS>BOND
     1    1    2 ar
     2    1    3 ar
     3    2    5 ar
     4    3    6 ar
     5    4    5 ar
     6    4    6 ar
     7    5    7 1
     8    6   23 1
     9    7   17 am
    10    7   19 2
    11    8   13 1
    12    8   18 am
    13    8   20 2
    14    9   15 1
    15   10   15 1
    16   11   12 1
    17   11   14 1
    18   12   22 1
    19   13   14 1
    20   13   21 1
    21   14   16 1
    22   15   22 1
    23   17   18 1
    24    1   24 1
    25    2   25 1
    26    3   26 1
    27    4   27 1
    28    9   28 1
    29    9   29 1
    30    9   30 1
    31   10   31 1
    32   10   32 1
    33   10   33 1
    34   11   34 1
    35   11   35 1
    36   12   36 1
    37   12   37 1
    38   13   38 1
    39   14   39 1
    40   15   40 1
    41   16   41 1
    42   16   42 1
    43   17   43 1
    44   18   44 1
    45   21   45 1
@<TRIPOS>MOLECULE
LIGAND
   45    45     0     0     0
SMALL
NO_CHARGES

@<TRIPOS>ATOM
      1 C1         -0.8688   -1.7203    8.2676 C.ar      1 <0>         0.0000
      2 C2         -0.4721   -1.3756    6.9756 C.ar      1 <0>         0.0000
      3 C3         -1.6746   -0.8524    9.0047 C.ar      1 <0>         0.0000
      4 C4         -1.6869    0.7048    7.1576 C.ar      1 <0>         0.0000
      5 C5         -0.8811   -0.1631    6.4206 C.ar      1 <0>         0.0000
      6 C6         -2.0836    0.3601    8.4497 C.ar      1 <0>         0.0000
      7 C7         -0.4576    0.2036    5.0443 C.2       1 <0>         0.0000
      8 C8          1.9325   -1.0133    2.6768 C.2       1 <0>         0.0000
      9 C9          5.1418    3.1300   -1.9709 C.3       1 <0>         0.0000
     10 C10         3.7665    4.3432   -3.6963 C.3       1 <0>         0.0000
     11 C11         1.5761    0.1765   -1.0474 C.3       1 <0>         0.0000
     12 C12         2.3784    1.4800   -1.1273 C.3       1 <0>         0.0000
     13 C13         2.3649   -0.5352    1.2935 C.3       1 <0>         0.0000
     14 C14         1.1534   -0.2750    0.3710 C.3       1 <0>         0.0000
     15 C15         3.7349    3.4566   -2.4572 C.3       1 <0>         0.0000
     16 N1          0.3597   -1.5080    0.3138 N.3       1 <0>         0.0000
     17 N2          0.7320   -0.3536    4.6161 N.am      1 <0>         0.0000
     18 N3          1.1743   -0.0714    3.3469 N.am      1 <0>         0.0000
     19 O1         -1.1696    0.9461    4.3728 O.2       1 <0>         0.0000
     20 O2          2.2555   -2.1109    3.1269 O.2       1 <0>         0.0000
     21 O3          3.2186   -1.5159    0.7230 O.3       1 <0>         0.0000
     22 S1          2.8465    1.9264   -2.8249 S.3       1 <0>         0.0000
     23 Cl1        -3.0783    1.4303    9.3596 Cl        1 <0>         0.0000
     24 H1         -0.5505   -2.6646    8.6994 H         1 <0>         0.0000
     25 H2          0.1559   -2.0601    6.4111 H         1 <0>         0.0000
     26 H3         -1.9758   -1.1345   10.0103 H         1 <0>         0.0000
     27 H4         -2.0049    1.6499    6.7219 H         1 <0>         0.0000
     28 H5          5.7052    2.6127   -2.7555 H         1 <0>         0.0000
     29 H6          5.6972    4.0398   -1.7170 H         1 <0>         0.0000
     30 H7          5.1290    2.4774   -1.0905 H         1 <0>         0.0000
     31 H8          4.3088    3.8446   -4.5075 H         1 <0>         0.0000
     32 H9          4.2791    5.2906   -3.4959 H         1 <0>         0.0000
     33 H10         2.7588    4.5681   -4.0639 H         1 <0>         0.0000
     34 H11         2.1843   -0.6108   -1.5125 H         1 <0>         0.0000
     35 H12         0.6847    0.2765   -1.6798 H         1 <0>         0.0000
     36 H13         3.3029    1.3655   -0.5514 H         1 <0>         0.0000
     37 H14         1.8267    2.3139   -0.6838 H         1 <0>         0.0000
     38 H15         2.9484    0.3859    1.4229 H         1 <0>         0.0000
     39 H16         0.5249    0.4957    0.8291 H         1 <0>         0.0000
     40 H17         3.1895    3.9723   -1.6597 H         1 <0>         0.0000
     41 H18        -0.4842   -1.3249   -0.2178 H         1 <0>         0.0000
     42 H19         0.0690   -1.7492    1.2550 H         1 <0>         0.0000
     43 H20         1.2684   -0.9594    5.2274 H         1 <0>         0.0000
     44 H21         0.9480    0.8148    2.9078 H         1 <0>         0.0000
     45 H22         2.7041   -2.3378    0.6655 H         1 <0>         0.0000
@<TRIPOS>BOND
     1    1    2 ar
     2    1    3 ar
     3    2    5 ar
     4    3    6 ar
     5    4    5 ar
     6    4    6 ar
     7    5    7 1
     8    6   23 1
     9    7   17 am
    10    7   19 2
    11    8   13 1
    12    8   18 am
    13    8   20 2
    14    9   15 1
    15   10   15 1
    16   11   12 1
    17   11   14 1
    18   12   22 1
    19   13   14 1
    20   13   21 1
    21   14   16 1
    22   15   22 1
    23   17   18 1
    24    1   24 1
    25    2   25 1
    26    3   26 1
    27    4   27 1
    28    9   28 1
    29    9   29 1
    30    9   30 1
    31   10   31 1
    32   10   32 1
    33   10   33 1
    34   11   34 1
    35   11   35 1
    36   12   36 1
    37   12   37 1
    38   13   38 1
    39   14   39 1
    40   15   40 1
    41   16   41 1
    42   16   42 1
    43   17   43 1
    44   18   44 1
    45   21   45 1
@<TRIPOS>MOLECULE
LIGAND
   45    45     0     0     0
SMALL
NO_CHARGES

@<TRIPOS>ATOM
      1 C1          3.8916   -2.8784    9.2192 C.ar      1 <0>         0.0000
      2 C2          4.2123   -2.5093    7.9128 C.ar      1 <0>         0.0000
      3 C3          2.6918   -2.4530    9.7895 C.ar      1 <0>         0.0000
      4 C4          2.1335   -1.2894    7.7472 C.ar      1 <0>         0.0000
      5 C5          3.3333   -1.7148    7.1768 C.ar      1 <0>         0.0000
      6 C6          1.8128   -1.6585    9.0535 C.ar      1 <0>         0.0000
      7 C7          3.6760   -1.3216    5.7855 C.2       1 <0>         0.0000
      8 C8          1.9325   -1.0133    2.6768 C.2       1 <0>         0.0000
      9 C9          0.2369    5.9907    2.5840 C.3       1 <0>         0.0000
     10 C10         1.4273    4.1074    3.7571 C.3       1 <0>         0.0000
     11 C11         0.2195    0.8307    0.9188 C.3       1 <0>         0.0000
     12 C12         0.8590    2.2074    1.1305 C.3       1 <0>         0.0000
     13 C13         2.3649   -0.5352    1.2935 C.3       1 <0>         0.0000
     14 C14         1.1534   -0.2750    0.3710 C.3       1 <0>         0.0000
     15 C15         0.8895    4.6225    2.4275 C.3       1 <0>         0.0000
     16 N1          1.6681    0.0834   -0.9557 N.3       1 <0>         0.0000
     17 N2          2.6023   -1.0670    4.9540 N.am      1 <0>         0.0000
     18 N3          2.8469   -0.6810    3.6590 N.am      1 <0>         0.0000
     19 O1          4.8567   -1.2304    5.4589 O.2       1 <0>         0.0000
     20 O2          0.8915   -1.6405    2.8632 O.2       1 <0>         0.0000
     21 O3          3.2186   -1.5159    0.7230 O.3       1 <0>         0.0000
     22 S1         -0.3102    3.4478    1.7590 S.3       1 <0>         0.0000
     23 Cl1         0.3323   -1.1343    9.7578 Cl        1 <0>         0.0000
     24 H1          4.5760   -3.4972    9.7919 H         1 <0>         0.0000
     25 H2          5.1502   -2.8469    7.4793 H         1 <0>         0.0000
     26 H3          2.4554   -2.7484   10.8085 H         1 <0>         0.0000
     27 H4          1.4494   -0.6701    7.1704 H         1 <0>         0.0000
     28 H5         -0.5922    5.9375    3.2984 H         1 <0>         0.0000
     29 H6          0.9490    6.7308    2.9659 H         1 <0>         0.0000
     30 H7         -0.1692    6.3609    1.6357 H         1 <0>         0.0000
     31 H8          0.6165    4.0253    4.4896 H         1 <0>         0.0000
     32 H9          2.1764    4.7890    4.1753 H         1 <0>         0.0000
     33 H10         1.8823    3.1153    3.6574 H         1 <0>         0.0000
     34 H11        -0.6259    0.9652    0.2307 H         1 <0>         0.0000
     35 H12        -0.2197    0.5004    1.8688 H         1 <0>         0.0000
     36 H13         1.2423    2.5738    0.1722 H         1 <0>         0.0000
     37 H14         1.7108    2.1489    1.8142 H         1 <0>         0.0000
     38 H15         2.9484    0.3859    1.4229 H         1 <0>         0.0000
     39 H16         0.5915   -1.2082    0.2610 H         1 <0>         0.0000
     40 H17         1.7141    4.6972    1.7106 H         1 <0>         0.0000
     41 H18         0.8845    0.1717   -1.5934 H         1 <0>         0.0000
     42 H19         2.2416   -0.6802   -1.2969 H         1 <0>         0.0000
     43 H20         1.6516   -1.1634    5.2936 H         1 <0>         0.0000
     44 H21         3.6858   -0.1599    3.4266 H         1 <0>         0.0000
     45 H22         2.7041   -2.3378    0.6655 H         1 <0>         0.0000
@<TRIPOS>BOND
     1    1    2 ar
     2    1    3 ar
     3    2    5 ar
     4    3    6 ar
     5    4    5 ar
     6    4    6 ar
     7    5    7 1
     8    6   23 1
     9    7   17 am
    10    7   19 2
    11    8   13 1
    12    8   18 am
    13    8   20 2
    14    9   15 1
    15   10   15 1
    16   11   12 1
    17   11   14 1
    18   12   22 1
    19   13   14 1
    20   13   21 1
    21   14   16 1
    22   15   22 1
    23   17   18 1
    24    1   24 1
    25    2   25 1
    26    3   26 1
    27    4   27 1
    28    9   28 1
    29    9   29 1
    30    9   30 1
    31   10   31 1
    32   10   32 1
    33   10   33 1
    34   11   34 1
    35   11   35 1
    36   12   36 1
    37   12   37 1
    38   13   38 1
    39   14   39 1
    40   15   40 1
    41   16   41 1
    42   16   42 1
    43   17   43 1
    44   18   44 1
    45   21   45 1
@<TRIPOS>MOLECULE
LIGAND
   45    45     0     0     0
SMALL
NO_CHARGES

@<TRIPOS>ATOM
      1 C1         -2.6241   -1.6244    7.8186 C.ar      1 <0>         0.0000
      2 C2         -2.2458   -1.3508    6.5042 C.ar      1 <0>         0.0000
      3 C3         -1.6506   -1.8141    8.7994 C.ar      1 <0>         0.0000
      4 C4          0.0795   -1.4566    7.1515 C.ar      1 <0>         0.0000
      5 C5         -0.8940   -1.2668    6.1707 C.ar      1 <0>         0.0000
      6 C6         -0.2989   -1.7302    8.4659 C.ar      1 <0>         0.0000
      7 C7         -0.4919   -0.9759    4.7701 C.2       1 <0>         0.0000
      8 C8          1.9325   -1.0133    2.6768 C.2       1 <0>         0.0000
      9 C9         -0.4527    2.0643   -5.6954 C.3       1 <0>         0.0000
     10 C10        -1.1282   -0.2129   -4.8599 C.3       1 <0>         0.0000
     11 C11         1.5761    0.1765   -1.0474 C.3       1 <0>         0.0000
     12 C12         0.4360    0.4372   -2.0380 C.3       1 <0>         0.0000
     13 C13         2.3649   -0.5352    1.2935 C.3       1 <0>         0.0000
     14 C14         1.1534   -0.2750    0.3710 C.3       1 <0>         0.0000
     15 C15        -0.5876    1.1594   -4.4766 C.3       1 <0>         0.0000
     16 N1          0.3597   -1.5080    0.3138 N.3       1 <0>         0.0000
     17 N2          0.7320   -0.3536    4.6161 N.am      1 <0>         0.0000
     18 N3          1.1743   -0.0714    3.3469 N.am      1 <0>         0.0000
     19 O1         -1.2351   -1.3059    3.8493 O.2       1 <0>         0.0000
     20 O2          2.2555   -2.1109    3.1269 O.2       1 <0>         0.0000
     21 O3          3.2186   -1.5159    0.7230 O.3       1 <0>         0.0000
     22 S1          1.0200    0.9781   -3.6711 S.3       1 <0>         0.0000
     23 Cl1         0.9018   -1.9639    9.6768 Cl        1 <0>         0.0000
     24 H1         -3.6766   -1.6894    8.0781 H         1 <0>         0.0000
     25 H2         -3.0136   -1.2050    5.7487 H         1 <0>         0.0000
     26 H3         -1.9605   -2.0267    9.8194 H         1 <0>         0.0000
     27 H4          1.1333   -1.3900    6.8885 H         1 <0>         0.0000
     28 H5          0.2251    1.6152   -6.4298 H         1 <0>         0.0000
     29 H6         -1.4187    2.2120   -6.1912 H         1 <0>         0.0000
     30 H7         -0.0471    3.0477   -5.4316 H         1 <0>         0.0000
     31 H8         -0.4607   -0.6971   -5.5815 H         1 <0>         0.0000
     32 H9         -2.1151   -0.1359   -5.3296 H         1 <0>         0.0000
     33 H10        -1.2112   -0.8767   -3.9917 H         1 <0>         0.0000
     34 H11         2.1631    1.1018   -0.9736 H         1 <0>         0.0000
     35 H12         2.2520   -0.5707   -1.4824 H         1 <0>         0.0000
     36 H13        -0.2073    1.2295   -1.6408 H         1 <0>         0.0000
     37 H14        -0.1907   -0.4501   -2.1649 H         1 <0>         0.0000
     38 H15         2.9484    0.3859    1.4229 H         1 <0>         0.0000
     39 H16         0.5249    0.4957    0.8291 H         1 <0>         0.0000
     40 H17        -1.2679    1.6256   -3.7560 H         1 <0>         0.0000
     41 H18        -0.4842   -1.3249   -0.2178 H         1 <0>         0.0000
     42 H19         0.0690   -1.7492    1.2550 H         1 <0>         0.0000
     43 H20         1.2931   -0.1098    5.4249 H         1 <0>         0.0000
     44 H21         0.9480    0.8148    2.9078 H         1 <0>         0.0000
     45 H22         2.7041   -2.3378    0.6655 H         1 <0>         0.0000
@<TRIPOS>BOND
     1    1    2 ar
     2    1    3 ar
     3    2    5 ar
     4    3    6 ar
     5    4    5 ar
     6    4    6 ar
     7    5    7 1
     8    6   23 1
     9    7   17 am
    10    7   19 2
    11    8   13 1
    12    8   18 am
    13    8   20 2
    14    9   15 1
    15   10   15 1
    16   11   12 1
    17   11   14 1
    18   12   22 1
    19   13   14 1
    20   13   21 1
    21   14   16 1
    22   15   22 1
    23   17   18 1
    24    1   24 1
    25    2   25 1
    26    3   26 1
    27    4   27 1
    28    9   28 1
    29    9   29 1
    30    9   30 1
    31   10   31 1
    32   10   32 1
    33   10   33 1
    34   11   34 1
    35   11   35 1
    36   12   36 1
    37   12   37 1
    38   13   38 1
    39   14   39 1
    40   15   40 1
    41   16   41 1
    42   16   42 1
    43   17   43 1
    44   18   44 1
    45   21   45 1
@<TRIPOS>MOLECULE
LIGAND
   45    45     0     0     0
SMALL
NO_CHARGES

@<TRIPOS>ATOM
      1 C1          3.3674   -3.8174    8.8247 C.ar      1 <0>         0.0000
      2 C2          3.6347   -3.4983    7.4934 C.ar      1 <0>         0.0000
      3 C3          2.2539   -3.2710    9.4629 C.ar      1 <0>         0.0000
      4 C4          1.6751   -2.0863    7.4384 C.ar      1 <0>         0.0000
      5 C5          2.7886   -2.6327    6.8003 C.ar      1 <0>         0.0000
      6 C6          1.4078   -2.4054    8.7697 C.ar      1 <0>         0.0000
      7 C7          3.0744   -2.2928    5.3823 C.2       1 <0>         0.0000
      8 C8          1.9325   -1.0133    2.6768 C.2       1 <0>         0.0000
      9 C9         -2.4695    4.5098    0.4722 C.3       1 <0>         0.0000
     10 C10        -0.2177    4.7761   -0.6229 C.3       1 <0>         0.0000
     11 C11         0.2195    0.8307    0.9188 C.3       1 <0>         0.0000
     12 C12         0.8590    2.2074    1.1305 C.3       1 <0>         0.0000
     13 C13         2.3649   -0.5352    1.2935 C.3       1 <0>         0.0000
     14 C14         1.1534   -0.2750    0.3710 C.3       1 <0>         0.0000
     15 C15        -1.1189    3.8600    0.1963 C.3       1 <0>         0.0000
     16 N1          1.6681    0.0834   -0.9557 N.3       1 <0>         0.0000
     17 N2          2.6023   -1.0670    4.9540 N.am      1 <0>         0.0000
     18 N3          2.8469   -0.6810    3.6590 N.am      1 <0>         0.0000
     19 O1          3.7083   -3.0847    4.6892 O.2       1 <0>         0.0000
     20 O2          0.8915   -1.6405    2.8632 O.2       1 <0>         0.0000
     21 O3          3.2186   -1.5159    0.7230 O.3       1 <0>         0.0000
     22 S1         -0.3102    3.4478    1.7590 S.3       1 <0>         0.0000
     23 Cl1         0.0337   -1.7319    9.5577 Cl        1 <0>         0.0000
     24 H1          4.0262   -4.4916    9.3641 H         1 <0>         0.0000
     25 H2          4.5055   -3.9303    7.0070 H         1 <0>         0.0000
     26 H3          2.0583   -3.5288   10.5005 H         1 <0>         0.0000
     27 H4          1.0164   -1.4117    6.8951 H         1 <0>         0.0000
     28 H5         -2.3352    5.4486    1.0211 H         1 <0>         0.0000
     29 H6         -2.9944    4.7495   -0.4593 H         1 <0>         0.0000
     30 H7         -3.1176    3.8651    1.0767 H         1 <0>         0.0000
     31 H8         -0.0488    5.7190   -0.0908 H         1 <0>         0.0000
     32 H9         -0.6728    5.0239   -1.5883 H         1 <0>         0.0000
     33 H10         0.7629    4.3240   -0.8105 H         1 <0>         0.0000
     34 H11        -0.6259    0.9652    0.2307 H         1 <0>         0.0000
     35 H12        -0.2197    0.5004    1.8688 H         1 <0>         0.0000
     36 H13         1.2423    2.5738    0.1722 H         1 <0>         0.0000
     37 H14         1.7108    2.1489    1.8142 H         1 <0>         0.0000
     38 H15         2.9484    0.3859    1.4229 H         1 <0>         0.0000
     39 H16         0.5915   -1.2082    0.2610 H         1 <0>         0.0000
     40 H17        -1.2750    2.9249   -0.3521 H         1 <0>         0.0000
     41 H18         0.8845    0.1717   -1.5934 H         1 <0>         0.0000
     42 H19         2.2416   -0.6802   -1.2969 H         1 <0>         0.0000
     43 H20         2.0849   -0.4638    5.5841 H         1 <0>         0.0000
     44 H21         3.6858   -0.1599    3.4266 H         1 <0>         0.0000
     45 H22         2.7041   -2.3378    0.6655 H         1 <0>         0.0000
@<TRIPOS>BOND
     1    1    2 ar
     2    1    3 ar
     3    2    5 ar
     4    3    6 ar
     5    4    5 ar
     6    4    6 ar
     7    5    7 1
     8    6   23 1
     9    7   17 am
    10    7   19 2
    11    8   13 1
    12    8   18 am
    13    8   20 2
    14    9   15 1
    15   10   15 1
    16   11   12 1
    17   11   14 1
    18   12   22 1
    19   13   14 1
    20   13   21 1
    21   14   16 1
    22   15   22 1
    23   17   18 1
    24    1   24 1
    25    2   25 1
    26    3   26 1
    27    4   27 1
    28    9   28 1
    29    9   29 1
    30    9   30 1
    31   10   31 1
    32   10   32 1
    33   10   33 1
    34   11   34 1
    35   11   35 1
    36   12   36 1
    37   12   37 1
    38   13   38 1
    39   14   39 1
    40   15   40 1
    41   16   41 1
    42   16   42 1
    43   17   43 1
    44   18   44 1
    45   21   45 1
@<TRIPOS>MOLECULE
LIGAND
   45    45     0     0     0
SMALL
NO_CHARGES

@<TRIPOS>ATOM
      1 C1         -0.7874   -0.7484    8.5279 C.ar      1 <0>         0.0000
      2 C2         -0.4100   -0.4763    7.2130 C.ar      1 <0>         0.0000
      3 C3         -1.6489   -1.8111    8.8006 C.ar      1 <0>         0.0000
      4 C4         -1.7555   -2.3295    6.4433 C.ar      1 <0>         0.0000
      5 C5         -0.8940   -1.2668    6.1707 C.ar      1 <0>         0.0000
      6 C6         -2.1330   -2.6016    7.7583 C.ar      1 <0>         0.0000
      7 C7         -0.4919   -0.9759    4.7701 C.2       1 <0>         0.0000
      8 C8          1.9325   -1.0133    2.6768 C.2       1 <0>         0.0000
      9 C9         -0.4527    2.0643   -5.6954 C.3       1 <0>         0.0000
     10 C10        -1.1282   -0.2129   -4.8599 C.3       1 <0>         0.0000
     11 C11         1.5761    0.1765   -1.0474 C.3       1 <0>         0.0000
     12 C12         0.4360    0.4372   -2.0380 C.3       1 <0>         0.0000
     13 C13         2.3649   -0.5352    1.2935 C.3       1 <0>         0.0000
     14 C14         1.1534   -0.2750    0.3710 C.3       1 <0>         0.0000
     15 C15        -0.5876    1.1594   -4.4766 C.3       1 <0>         0.0000
     16 N1          0.3597   -1.5080    0.3138 N.3       1 <0>         0.0000
     17 N2          0.7320   -0.3536    4.6161 N.am      1 <0>         0.0000
     18 N3          1.1743   -0.0714    3.3469 N.am      1 <0>         0.0000
     19 O1         -1.2351   -1.3059    3.8493 O.2       1 <0>         0.0000
     20 O2          2.2555   -2.1109    3.1269 O.2       1 <0>         0.0000
     21 O3          3.2186   -1.5159    0.7230 O.3       1 <0>         0.0000
     22 S1          1.0200    0.9781   -3.6711 S.3       1 <0>         0.0000
     23 Cl1        -3.1956   -3.9130    8.0955 Cl        1 <0>         0.0000
     24 H1         -0.4102   -0.1330    9.3393 H         1 <0>         0.0000
     25 H2          0.2618    0.3545    7.0131 H         1 <0>         0.0000
     26 H3         -1.9343   -2.0111    9.8301 H         1 <0>         0.0000
     27 H4         -2.1312   -2.9448    5.6282 H         1 <0>         0.0000
     28 H5          0.2251    1.6152   -6.4298 H         1 <0>         0.0000
     29 H6         -1.4187    2.2120   -6.1912 H         1 <0>         0.0000
     30 H7         -0.0471    3.0477   -5.4316 H         1 <0>         0.0000
     31 H8         -0.4607   -0.6971   -5.5815 H         1 <0>         0.0000
     32 H9         -2.1151   -0.1359   -5.3296 H         1 <0>         0.0000
     33 H10        -1.2112   -0.8767   -3.9917 H         1 <0>         0.0000
     34 H11         2.1631    1.1018   -0.9736 H         1 <0>         0.0000
     35 H12         2.2520   -0.5707   -1.4824 H         1 <0>         0.0000
     36 H13        -0.2073    1.2295   -1.6408 H         1 <0>         0.0000
     37 H14        -0.1907   -0.4501   -2.1649 H         1 <0>         0.0000
     38 H15         2.9484    0.3859    1.4229 H         1 <0>         0.0000
     39 H16         0.5249    0.4957    0.8291 H         1 <0>         0.0000
     40 H17        -1.2679    1.6256   -3.7560 H         1 <0>         0.0000
     41 H18        -0.4842   -1.3249   -0.2178 H         1 <0>         0.0000
     42 H19         0.0690   -1.7492    1.2550 H         1 <0>         0.0000
     43 H20         1.2931   -0.1098    5.4249 H         1 <0>         0.0000
     44 H21         0.9480    0.8148    2.9078 H         1 <0>         0.0000
     45 H22         2.7041   -2.3378    0.6655 H         1 <0>         0.0000
@<TRIPOS>BOND
     1    1    2 ar
     2    1    3 ar
     3    2    5 ar
     4    3    6 ar
     5    4    5 ar
     6    4    6 ar
     7    5    7 1
     8    6   23 1
     9    7   17 am
    10    7   19 2
    11    8   13 1
    12    8   18 am
    13    8   20 2
    14    9   15 1
    15   10   15 1
    16   11   12 1
    17   11   14 1
    18   12   22 1
    19   13   14 1
    20   13   21 1
    21   14   16 1
    22   15   22 1
    23   17   18 1
    24    1   24 1
    25    2   25 1
    26    3   26 1
    27    4   27 1
    28    9   28 1
    29    9   29 1
    30    9   30 1
    31   10   31 1
    32   10   32 1
    33   10   33 1
    34   11   34 1
    35   11   35 1
    36   12   36 1
    37   12   37 1
    38   13   38 1
    39   14   39 1
    40   15   40 1
    41   16   41 1
    42   16   42 1
    43   17   43 1
    44   18   44 1
    45   21   45 1
@<TRIPOS>MOLECULE
LIGAND
   45    45     0     0     0
SMALL
NO_CHARGES

@<TRIPOS>ATOM
      1 C1         -0.9982   -4.7984    7.0345 C.ar      1 <0>         0.0000
      2 C2         -0.5646   -4.1991    5.8520 C.ar      1 <0>         0.0000
      3 C3         -1.8801   -4.1214    7.8770 C.ar      1 <0>         0.0000
      4 C4         -1.8946   -2.2457    6.3543 C.ar      1 <0>         0.0000
      5 C5         -1.0128   -2.9227    5.5119 C.ar      1 <0>         0.0000
      6 C6         -2.3282   -2.8450    7.5369 C.ar      1 <0>         0.0000
      7 C7         -0.5498   -2.2848    4.2523 C.2       1 <0>         0.0000
      8 C8          1.9325   -1.0133    2.6768 C.2       1 <0>         0.0000
      9 C9          0.0309    6.1524    1.8816 C.3       1 <0>         0.0000
     10 C10         1.7102    4.7140    3.0862 C.3       1 <0>         0.0000
     11 C11         0.2195    0.8307    0.9188 C.3       1 <0>         0.0000
     12 C12         0.8590    2.2074    1.1305 C.3       1 <0>         0.0000
     13 C13         2.3649   -0.5352    1.2935 C.3       1 <0>         0.0000
     14 C14         1.1534   -0.2750    0.3710 C.3       1 <0>         0.0000
     15 C15         0.8241    4.8515    1.8540 C.3       1 <0>         0.0000
     16 N1          1.6681    0.0834   -0.9557 N.3       1 <0>         0.0000
     17 N2          0.6851   -2.6985    3.7909 N.am      1 <0>         0.0000
     18 N3          1.1665   -2.1628    2.6216 N.am      1 <0>         0.0000
     19 O1         -1.2703   -1.4609    3.6944 O.2       1 <0>         0.0000
     20 O2          2.2299   -0.4108    3.7066 O.2       1 <0>         0.0000
     21 O3          3.2186   -1.5159    0.7230 O.3       1 <0>         0.0000
     22 S1         -0.3102    3.4478    1.7590 S.3       1 <0>         0.0000
     23 Cl1        -3.4168   -2.0104    8.5766 Cl        1 <0>         0.0000
     24 H1         -0.6495   -5.7923    7.2990 H         1 <0>         0.0000
     25 H2          0.1227   -4.7366    5.2037 H         1 <0>         0.0000
     26 H3         -2.2094   -4.6010    8.7951 H         1 <0>         0.0000
     27 H4         -2.2430   -1.2503    6.0862 H         1 <0>         0.0000
     28 H5         -0.6040    6.1923    2.7738 H         1 <0>         0.0000
     29 H6          0.6947    7.0236    1.9150 H         1 <0>         0.0000
     30 H7         -0.6232    6.2512    1.0077 H         1 <0>         0.0000
     31 H8          1.1011    4.7317    3.9969 H         1 <0>         0.0000
     32 H9          2.4261    5.5404    3.1569 H         1 <0>         0.0000
     33 H10         2.2708    3.7722    3.0836 H         1 <0>         0.0000
     34 H11        -0.6259    0.9652    0.2307 H         1 <0>         0.0000
     35 H12        -0.2197    0.5004    1.8688 H         1 <0>         0.0000
     36 H13         1.2423    2.5738    0.1722 H         1 <0>         0.0000
     37 H14         1.7108    2.1489    1.8142 H         1 <0>         0.0000
     38 H15         2.9484    0.3859    1.4229 H         1 <0>         0.0000
     39 H16         0.5915   -1.2082    0.2610 H         1 <0>         0.0000
     40 H17         1.4510    4.8315    0.9561 H         1 <0>         0.0000
     41 H18         0.8845    0.1717   -1.5934 H         1 <0>         0.0000
     42 H19         2.2416   -0.6802   -1.2969 H         1 <0>         0.0000
     43 H20         1.2257   -3.3847    4.3060 H         1 <0>         0.0000
     44 H21         0.9630   -2.6038    1.7309 H         1 <0>         0.0000
     45 H22         2.7041   -2.3378    0.6655 H         1 <0>         0.0000
@<TRIPOS>BOND
     1    1    2 ar
     2    1    3 ar
     3    2    5 ar
     4    3    6 ar
     5    4    5 ar
     6    4    6 ar
     7    5    7 1
     8    6   23 1
     9    7   17 am
    10    7   19 2
    11    8   13 1
    12    8   18 am
    13    8   20 2
    14    9   15 1
    15   10   15 1
    16   11   12 1
    17   11   14 1
    18   12   22 1
    19   13   14 1
    20   13   21 1
    21   14   16 1
    22   15   22 1
    23   17   18 1
    24    1   24 1
    25    2   25 1
    26    3   26 1
    27    4   27 1
    28    9   28 1
    29    9   29 1
    30    9   30 1
    31   10   31 1
    32   10   32 1
    33   10   33 1
    34   11   34 1
    35   11   35 1
    36   12   36 1
    37   12   37 1
    38   13   38 1
    39   14   39 1
    40   15   40 1
    41   16   41 1
    42   16   42 1
    43   17   43 1
    44   18   44 1
    45   21   45 1
@<TRIPOS>MOLECULE
LIGAND
   45    45     0     0     0
SMALL
NO_CHARGES

@<TRIPOS>ATOM
      1 C1         -0.5153   -4.0016    7.6155 C.ar      1 <0>         0.0000
      2 C2         -0.0816   -3.4032    6.4326 C.ar      1 <0>         0.0000
      3 C3         -1.8803   -4.1197    7.8777 C.ar      1 <0>         0.0000
      4 C4         -2.3777   -3.0408    5.7741 C.ar      1 <0>         0.0000
      5 C5         -1.0128   -2.9227    5.5119 C.ar      1 <0>         0.0000
      6 C6         -2.8114   -3.6393    6.9570 C.ar      1 <0>         0.0000
      7 C7         -0.5498   -2.2848    4.2523 C.2       1 <0>         0.0000
      8 C8          1.9325   -1.0133    2.6768 C.2       1 <0>         0.0000
      9 C9          0.0309    6.1524    1.8816 C.3       1 <0>         0.0000
     10 C10         1.7102    4.7140    3.0862 C.3       1 <0>         0.0000
     11 C11         0.2195    0.8307    0.9188 C.3       1 <0>         0.0000
     12 C12         0.8590    2.2074    1.1305 C.3       1 <0>         0.0000
     13 C13         2.3649   -0.5352    1.2935 C.3       1 <0>         0.0000
     14 C14         1.1534   -0.2750    0.3710 C.3       1 <0>         0.0000
     15 C15         0.8241    4.8515    1.8540 C.3       1 <0>         0.0000
     16 N1          1.6681    0.0834   -0.9557 N.3       1 <0>         0.0000
     17 N2          0.6851   -2.6985    3.7909 N.am      1 <0>         0.0000
     18 N3          1.1665   -2.1628    2.6216 N.am      1 <0>         0.0000
     19 O1         -1.2703   -1.4609    3.6944 O.2       1 <0>         0.0000
     20 O2          2.2299   -0.4108    3.7066 O.2       1 <0>         0.0000
     21 O3          3.2186   -1.5159    0.7230 O.3       1 <0>         0.0000
     22 S1         -0.3102    3.4478    1.7590 S.3       1 <0>         0.0000
     23 Cl1        -4.4955   -3.7857    7.2810 Cl        1 <0>         0.0000
     24 H1          0.2098   -4.3759    8.3321 H         1 <0>         0.0000
     25 H2          0.9846   -3.3169    6.2396 H         1 <0>         0.0000
     26 H3         -2.2034   -4.5883    8.8037 H         1 <0>         0.0000
     27 H4         -3.1019   -2.6655    5.0538 H         1 <0>         0.0000
     28 H5         -0.6040    6.1923    2.7738 H         1 <0>         0.0000
     29 H6          0.6947    7.0236    1.9150 H         1 <0>         0.0000
     30 H7         -0.6232    6.2512    1.0077 H         1 <0>         0.0000
     31 H8          1.1011    4.7317    3.9969 H         1 <0>         0.0000
     32 H9          2.4261    5.5404    3.1569 H         1 <0>         0.0000
     33 H10         2.2708    3.7722    3.0836 H         1 <0>         0.0000
     34 H11        -0.6259    0.9652    0.2307 H         1 <0>         0.0000
     35 H12        -0.2197    0.5004    1.8688 H         1 <0>         0.0000
     36 H13         1.2423    2.5738    0.1722 H         1 <0>         0.0000
     37 H14         1.7108    2.1489    1.8142 H         1 <0>         0.0000
     38 H15         2.9484    0.3859    1.4229 H         1 <0>         0.0000
     39 H16         0.5915   -1.2082    0.2610 H         1 <0>         0.0000
     40 H17         1.4510    4.8315    0.9561 H         1 <0>         0.0000
     41 H18         0.8845    0.1717   -1.5934 H         1 <0>         0.0000
     42 H19         2.2416   -0.6802   -1.2969 H         1 <0>         0.0000
     43 H20         1.2257   -3.3847    4.3060 H         1 <0>         0.0000
     44 H21         0.9630   -2.6038    1.7309 H         1 <0>         0.0000
     45 H22         2.7041   -2.3378    0.6655 H         1 <0>         0.0000
@<TRIPOS>BOND
     1    1    2 ar
     2    1    3 ar
     3    2    5 ar
     4    3    6 ar
     5    4    5 ar
     6    4    6 ar
     7    5    7 1
     8    6   23 1
     9    7   17 am
    10    7   19 2
    11    8   13 1
    12    8   18 am
    13    8   20 2
    14    9   15 1
    15   10   15 1
    16   11   12 1
    17   11   14 1
    18   12   22 1
    19   13   14 1
    20   13   21 1
    21   14   16 1
    22   15   22 1
    23   17   18 1
    24    1   24 1
    25    2   25 1
    26    3   26 1
    27    4   27 1
    28    9   28 1
    29    9   29 1
    30    9   30 1
    31   10   31 1
    32   10   32 1
    33   10   33 1
    34   11   34 1
    35   11   35 1
    36   12   36 1
    37   12   37 1
    38   13   38 1
    39   14   39 1
    40   15   40 1
    41   16   41 1
    42   16   42 1
    43   17   43 1
    44   18   44 1
    45   21   45 1
@<TRIPOS>MOLECULE
LIGAND
   45    45     0     0     0
SMALL
NO_CHARGES

@<TRIPOS>ATOM
      1 C1         -1.1840   -1.2026    8.2729 C.ar      1 <0>         0.0000
      2 C2         -0.7155   -0.8444    7.0089 C.ar      1 <0>         0.0000
      3 C3         -0.8839   -0.4077    9.3791 C.ar      1 <0>         0.0000
      4 C4          0.3533    1.1038    7.9573 C.ar      1 <0>         0.0000
      5 C5          0.0532    0.3088    6.8511 C.ar      1 <0>         0.0000
      6 C6         -0.1152    0.7455    9.2213 C.ar      1 <0>         0.0000
      7 C7          0.5524    0.6894    5.5043 C.2       1 <0>         0.0000
      8 C8          1.9325   -1.0133    2.6768 C.2       1 <0>         0.0000
      9 C9         -3.4003    1.8811   -1.9325 C.3       1 <0>         0.0000
     10 C10        -1.8862    1.7841   -3.9421 C.3       1 <0>         0.0000
     11 C11         1.5761    0.1765   -1.0474 C.3       1 <0>         0.0000
     12 C12         0.4360    0.4372   -2.0380 C.3       1 <0>         0.0000
     13 C13         2.3649   -0.5352    1.2935 C.3       1 <0>         0.0000
     14 C14         1.1534   -0.2750    0.3710 C.3       1 <0>         0.0000
     15 C15        -2.1244    1.2902   -2.5202 C.3       1 <0>         0.0000
     16 N1          0.3597   -1.5080    0.3138 N.3       1 <0>         0.0000
     17 N2          0.7320   -0.3536    4.6161 N.am      1 <0>         0.0000
     18 N3          1.1743   -0.0714    3.3469 N.am      1 <0>         0.0000
     19 O1          0.7587    1.8736    5.2510 O.2       1 <0>         0.0000
     20 O2          2.2555   -2.1109    3.1269 O.2       1 <0>         0.0000
     21 O3          3.2186   -1.5159    0.7230 O.3       1 <0>         0.0000
     22 S1         -0.7139    1.7277   -1.4786 S.3       1 <0>         0.0000
     23 Cl1         0.2544    1.7262   10.5866 Cl        1 <0>         0.0000
     24 H1         -1.7827   -2.1003    8.3955 H         1 <0>         0.0000
     25 H2         -0.9559   -1.4719    6.1545 H         1 <0>         0.0000
     26 H3         -1.2558   -0.6995   10.3579 H         1 <0>         0.0000
     27 H4          0.9528    2.0032    7.8311 H         1 <0>         0.0000
     28 H5         -3.3408    2.9751   -1.9162 H         1 <0>         0.0000
     29 H6         -4.2773    1.6115   -2.5314 H         1 <0>         0.0000
     30 H7         -3.5699    1.5456   -0.9030 H         1 <0>         0.0000
     31 H8         -1.8034    2.8767   -3.9567 H         1 <0>         0.0000
     32 H9         -2.7162    1.5114   -4.6033 H         1 <0>         0.0000
     33 H10        -0.9606    1.3783   -4.3662 H         1 <0>         0.0000
     34 H11         2.1631    1.1018   -0.9736 H         1 <0>         0.0000
     35 H12         2.2520   -0.5707   -1.4824 H         1 <0>         0.0000
     36 H13        -0.1421   -0.4839   -2.1668 H         1 <0>         0.0000
     37 H14         0.8216    0.7132   -3.0237 H         1 <0>         0.0000
     38 H15         2.9484    0.3859    1.4229 H         1 <0>         0.0000
     39 H16         0.5249    0.4957    0.8291 H         1 <0>         0.0000
     40 H17        -2.2041    0.1979   -2.5275 H         1 <0>         0.0000
     41 H18        -0.4842   -1.3249   -0.2178 H         1 <0>         0.0000
     42 H19         0.0690   -1.7492    1.2550 H         1 <0>         0.0000
     43 H20         0.5409   -1.3094    4.8961 H         1 <0>         0.0000
     44 H21         0.9480    0.8148    2.9078 H         1 <0>         0.0000
     45 H22         2.7041   -2.3378    0.6655 H         1 <0>         0.0000
@<TRIPOS>BOND
     1    1    2 ar
     2    1    3 ar
     3    2    5 ar
     4    3    6 ar
     5    4    5 ar
     6    4    6 ar
     7    5    7 1
     8    6   23 1
     9    7   17 am
    10    7   19 2
    11    8   13 1
    12    8   18 am
    13    8   20 2
    14    9   15 1
    15   10   15 1
    16   11   12 1
    17   11   14 1
    18   12   22 1
    19   13   14 1
    20   13   21 1
    21   14   16 1
    22   15   22 1
    23   17   18 1
    24    1   24 1
    25    2   25 1
    26    3   26 1
    27    4   27 1
    28    9   28 1
    29    9   29 1
    30    9   30 1
    31   10   31 1
    32   10   32 1
    33   10   33 1
    34   11   34 1
    35   11   35 1
    36   12   36 1
    37   12   37 1
    38   13   38 1
    39   14   39 1
    40   15   40 1
    41   16   41 1
    42   16   42 1
    43   17   43 1
    44   18   44 1
    45   21   45 1
@<TRIPOS>MOLECULE
LIGAND
   45    45     0     0     0
SMALL
NO_CHARGES

@<TRIPOS>ATOM
      1 C1          1.7949   -2.7138    8.7492 C.ar      1 <0>         0.0000
      2 C2          2.1171   -2.3438    7.4435 C.ar      1 <0>         0.0000
      3 C3          2.6888   -2.4547    9.7883 C.ar      1 <0>         0.0000
      4 C4          4.2272   -1.4558    8.2158 C.ar      1 <0>         0.0000
      5 C5          3.3333   -1.7148    7.1768 C.ar      1 <0>         0.0000
      6 C6          3.9049   -1.8257    9.5216 C.ar      1 <0>         0.0000
      7 C7          3.6760   -1.3216    5.7855 C.2       1 <0>         0.0000
      8 C8          1.9325   -1.0133    2.6768 C.2       1 <0>         0.0000
      9 C9          0.3770    5.2187   -0.2001 C.3       1 <0>         0.0000
     10 C10         0.1630    6.1072    2.1462 C.3       1 <0>         0.0000
     11 C11         0.2195    0.8307    0.9188 C.3       1 <0>         0.0000
     12 C12         0.8590    2.2074    1.1305 C.3       1 <0>         0.0000
     13 C13         2.3649   -0.5352    1.2935 C.3       1 <0>         0.0000
     14 C14         1.1534   -0.2750    0.3710 C.3       1 <0>         0.0000
     15 C15         0.6016    4.9327    1.2798 C.3       1 <0>         0.0000
     16 N1          1.6681    0.0834   -0.9557 N.3       1 <0>         0.0000
     17 N2          2.6023   -1.0670    4.9540 N.am      1 <0>         0.0000
     18 N3          2.8469   -0.6810    3.6590 N.am      1 <0>         0.0000
     19 O1          4.8567   -1.2304    5.4589 O.2       1 <0>         0.0000
     20 O2          0.8915   -1.6405    2.8632 O.2       1 <0>         0.0000
     21 O3          3.2186   -1.5159    0.7230 O.3       1 <0>         0.0000
     22 S1         -0.3102    3.4478    1.7590 S.3       1 <0>         0.0000
     23 Cl1         5.0072   -1.5059   10.8043 Cl        1 <0>         0.0000
     24 H1          0.8479   -3.2031    8.9567 H         1 <0>         0.0000
     25 H2          1.4125   -2.5511    6.6423 H         1 <0>         0.0000
     26 H3          2.4241   -2.7487   10.8007 H         1 <0>         0.0000
     27 H4          5.1749   -0.9645    8.0049 H         1 <0>         0.0000
     28 H5         -0.6832    5.4173   -0.3928 H         1 <0>         0.0000
     29 H6          0.9382    6.1019   -0.5252 H         1 <0>         0.0000
     30 H7          0.6728    4.3718   -0.8297 H         1 <0>         0.0000
     31 H8         -0.9005    6.3195    1.9896 H         1 <0>         0.0000
     32 H9          0.7176    7.0179    1.8939 H         1 <0>         0.0000
     33 H10         0.3040    5.9029    3.2137 H         1 <0>         0.0000
     34 H11        -0.6259    0.9652    0.2307 H         1 <0>         0.0000
     35 H12        -0.2197    0.5004    1.8688 H         1 <0>         0.0000
     36 H13         1.2423    2.5738    0.1722 H         1 <0>         0.0000
     37 H14         1.7108    2.1489    1.8142 H         1 <0>         0.0000
     38 H15         2.9484    0.3859    1.4229 H         1 <0>         0.0000
     39 H16         0.5915   -1.2082    0.2610 H         1 <0>         0.0000
     40 H17         1.6656    4.7372    1.4509 H         1 <0>         0.0000
     41 H18         0.8845    0.1717   -1.5934 H         1 <0>         0.0000
     42 H19         2.2416   -0.6802   -1.2969 H         1 <0>         0.0000
     43 H20         1.6516   -1.1634    5.2936 H         1 <0>         0.0000
     44 H21         3.6858   -0.1599    3.4266 H         1 <0>         0.0000
     45 H22         2.7041   -2.3378    0.6655 H         1 <0>         0.0000
@<TRIPOS>BOND
     1    1    2 ar
     2    1    3 ar
     3    2    5 ar
     4    3    6 ar
     5    4    5 ar
     6    4    6 ar
     7    5    7 1
     8    6   23 1
     9    7   17 am
    10    7   19 2
    11    8   13 1
    12    8   18 am
    13    8   20 2
    14    9   15 1
    15   10   15 1
    16   11   12 1
    17   11   14 1
    18   12   22 1
    19   13   14 1
    20   13   21 1
    21   14   16 1
    22   15   22 1
    23   17   18 1
    24    1   24 1
    25    2   25 1
    26    3   26 1
    27    4   27 1
    28    9   28 1
    29    9   29 1
    30    9   30 1
    31   10   31 1
    32   10   32 1
    33   10   33 1
    34   11   34 1
    35   11   35 1
    36   12   36 1
    37   12   37 1
    38   13   38 1
    39   14   39 1
    40   15   40 1
    41   16   41 1
    42   16   42 1
    43   17   43 1
    44   18   44 1
    45   21   45 1
@<TRIPOS>MOLECULE
LIGAND
   45    45     0     0     0
SMALL
NO_CHARGES

@<TRIPOS>ATOM
      1 C1         -2.8134   -3.6397    6.9542 C.ar      1 <0>         0.0000
      2 C2         -2.3780   -3.0405    5.7723 C.ar      1 <0>         0.0000
      3 C3         -1.8836   -4.1212    7.8758 C.ar      1 <0>         0.0000
      4 C4         -0.0829   -3.4042    6.4334 C.ar      1 <0>         0.0000
      5 C5         -1.0128   -2.9227    5.5119 C.ar      1 <0>         0.0000
      6 C6         -0.5183   -4.0035    7.6154 C.ar      1 <0>         0.0000
      7 C7         -0.5498   -2.2848    4.2523 C.2       1 <0>         0.0000
      8 C8          1.9325   -1.0133    2.6768 C.2       1 <0>         0.0000
      9 C9          0.9992    5.4655    0.4702 C.3       1 <0>         0.0000
     10 C10         0.2949    5.8734    2.8530 C.3       1 <0>         0.0000
     11 C11         0.2195    0.8307    0.9188 C.3       1 <0>         0.0000
     12 C12         0.8590    2.2074    1.1305 C.3       1 <0>         0.0000
     13 C13         2.3649   -0.5352    1.2935 C.3       1 <0>         0.0000
     14 C14         1.1534   -0.2750    0.3710 C.3       1 <0>         0.0000
     15 C15         0.8241    4.8515    1.8540 C.3       1 <0>         0.0000
     16 N1          1.6681    0.0834   -0.9557 N.3       1 <0>         0.0000
     17 N2          0.6851   -2.6985    3.7909 N.am      1 <0>         0.0000
     18 N3          1.1665   -2.1628    2.6216 N.am      1 <0>         0.0000
     19 O1         -1.2703   -1.4609    3.6944 O.2       1 <0>         0.0000
     20 O2          2.2299   -0.4108    3.7066 O.2       1 <0>         0.0000
     21 O3          3.2186   -1.5159    0.7230 O.3       1 <0>         0.0000
     22 S1         -0.3102    3.4478    1.7590 S.3       1 <0>         0.0000
     23 Cl1         0.6285   -4.5974    8.7532 Cl        1 <0>         0.0000
     24 H1         -3.8765   -3.7310    7.1569 H         1 <0>         0.0000
     25 H2         -3.1122   -2.6692    5.0619 H         1 <0>         0.0000
     26 H3         -2.2377   -4.5858    8.7924 H         1 <0>         0.0000
     27 H4          0.9816   -3.3106    6.2279 H         1 <0>         0.0000
     28 H5          0.0422    5.8509    0.1009 H         1 <0>         0.0000
     29 H6          1.7019    6.3059    0.4928 H         1 <0>         0.0000
     30 H7          1.3622    4.7326   -0.2594 H         1 <0>         0.0000
     31 H8         -0.6729    6.2651    2.5204 H         1 <0>         0.0000
     32 H9          0.9758    6.7263    2.9496 H         1 <0>         0.0000
     33 H10         0.1486    5.4355    3.8470 H         1 <0>         0.0000
     34 H11        -0.6259    0.9652    0.2307 H         1 <0>         0.0000
     35 H12        -0.2197    0.5004    1.8688 H         1 <0>         0.0000
     36 H13         1.2423    2.5738    0.1722 H         1 <0>         0.0000
     37 H14         1.7108    2.1489    1.8142 H         1 <0>         0.0000
     38 H15         2.9484    0.3859    1.4229 H         1 <0>         0.0000
     39 H16         0.5915   -1.2082    0.2610 H         1 <0>         0.0000
     40 H17         1.7903    4.4730    2.2043 H         1 <0>         0.0000
     41 H18         0.8845    0.1717   -1.5934 H         1 <0>         0.0000
     42 H19         2.2416   -0.6802   -1.2969 H         1 <0>         0.0000
     43 H20         1.2257   -3.3847    4.3060 H         1 <0>         0.0000
     44 H21         0.9630   -2.6038    1.7309 H         1 <0>         0.0000
     45 H22         2.7041   -2.3378    0.6655 H         1 <0>         0.0000
@<TRIPOS>BOND
     1    1    2 ar
     2    1    3 ar
     3    2    5 ar
     4    3    6 ar
     5    4    5 ar
     6    4    6 ar
     7    5    7 1
     8    6   23 1
     9    7   17 am
    10    7   19 2
    11    8   13 1
    12    8   18 am
    13    8   20 2
    14    9   15 1
    15   10   15 1
    16   11   12 1
    17   11   14 1
    18   12   22 1
    19   13   14 1
    20   13   21 1
    21   14   16 1
    22   15   22 1
    23   17   18 1
    24    1   24 1
    25    2   25 1
    26    3   26 1
    27    4   27 1
    28    9   28 1
    29    9   29 1
    30    9   30 1
    31   10   31 1
    32   10   32 1
    33   10   33 1
    34   11   34 1
    35   11   35 1
    36   12   36 1
    37   12   37 1
    38   13   38 1
    39   14   39 1
    40   15   40 1
    41   16   41 1
    42   16   42 1
    43   17   43 1
    44   18   44 1
    45   21   45 1
@<TRIPOS>MOLECULE
LIGAND
   45    45     0     0     0
SMALL
NO_CHARGES

@<TRIPOS>ATOM
      1 C1          2.4230   -4.2883    8.5214 C.ar      1 <0>         0.0000
      2 C2          2.6907   -3.9683    7.1905 C.ar      1 <0>         0.0000
      3 C3          2.2530   -3.2726    9.4623 C.ar      1 <0>         0.0000
      4 C4          2.6187   -1.6170    7.7412 C.ar      1 <0>         0.0000
      5 C5          2.7886   -2.6327    6.8003 C.ar      1 <0>         0.0000
      6 C6          2.3509   -1.9370    9.0722 C.ar      1 <0>         0.0000
      7 C7          3.0744   -2.2928    5.3823 C.2       1 <0>         0.0000
      8 C8          1.9325   -1.0133    2.6768 C.2       1 <0>         0.0000
      9 C9         -3.5456    2.3208    3.0565 C.3       1 <0>         0.0000
     10 C10        -4.0220    0.6377    1.2453 C.3       1 <0>         0.0000
     11 C11         0.2195    0.8307    0.9188 C.3       1 <0>         0.0000
     12 C12        -1.0001    1.1700    0.0549 C.3       1 <0>         0.0000
     13 C13         2.3649   -0.5352    1.2935 C.3       1 <0>         0.0000
     14 C14         1.1534   -0.2750    0.3710 C.3       1 <0>         0.0000
     15 C15        -2.9459    1.4397    1.9673 C.3       1 <0>         0.0000
     16 N1          1.6681    0.0834   -0.9557 N.3       1 <0>         0.0000
     17 N2          2.6023   -1.0670    4.9540 N.am      1 <0>         0.0000
     18 N3          2.8469   -0.6810    3.6590 N.am      1 <0>         0.0000
     19 O1          3.7083   -3.0847    4.6892 O.2       1 <0>         0.0000
     20 O2          0.8915   -1.6405    2.8632 O.2       1 <0>         0.0000
     21 O3          3.2186   -1.5159    0.7230 O.3       1 <0>         0.0000
     22 S1         -2.0492    2.4644    0.7791 S.3       1 <0>         0.0000
     23 Cl1         2.1407   -0.6842   10.2336 Cl        1 <0>         0.0000
     24 H1          2.3465   -5.3282    8.8249 H         1 <0>         0.0000
     25 H2          2.8213   -4.7686    6.4665 H         1 <0>         0.0000
     26 H3          2.0449   -3.5371   10.4958 H         1 <0>         0.0000
     27 H4          2.6951   -0.5760    7.4338 H         1 <0>         0.0000
     28 H5         -4.2705    3.0197    2.6246 H         1 <0>         0.0000
     29 H6         -4.0763    1.7229    3.8059 H         1 <0>         0.0000
     30 H7         -2.7806    2.9152    3.5690 H         1 <0>         0.0000
     31 H8         -4.7543    1.3108    0.7855 H         1 <0>         0.0000
     32 H9         -4.5673   -0.0125    1.9385 H         1 <0>         0.0000
     33 H10        -3.6015    0.0146    0.4477 H         1 <0>         0.0000
     34 H11        -0.1531    0.5335    1.9082 H         1 <0>         0.0000
     35 H12         0.7975    1.7493    1.0822 H         1 <0>         0.0000
     36 H13        -1.6176    0.2727   -0.0585 H         1 <0>         0.0000
     37 H14        -0.7009    1.4813   -0.9501 H         1 <0>         0.0000
     38 H15         2.9484    0.3859    1.4229 H         1 <0>         0.0000
     39 H16         0.5915   -1.2082    0.2610 H         1 <0>         0.0000
     40 H17        -2.2253    0.7496    2.4190 H         1 <0>         0.0000
     41 H18         0.8845    0.1717   -1.5934 H         1 <0>         0.0000
     42 H19         2.2416   -0.6802   -1.2969 H         1 <0>         0.0000
     43 H20         2.0849   -0.4638    5.5841 H         1 <0>         0.0000
     44 H21         3.6858   -0.1599    3.4266 H         1 <0>         0.0000
     45 H22         2.7041   -2.3378    0.6655 H         1 <0>         0.0000
@<TRIPOS>BOND
     1    1    2 ar
     2    1    3 ar
     3    2    5 ar
     4    3    6 ar
     5    4    5 ar
     6    4    6 ar
     7    5    7 1
     8    6   23 1
     9    7   17 am
    10    7   19 2
    11    8   13 1
    12    8   18 am
    13    8   20 2
    14    9   15 1
    15   10   15 1
    16   11   12 1
    17   11   14 1
    18   12   22 1
    19   13   14 1
    20   13   21 1
    21   14   16 1
    22   15   22 1
    23   17   18 1
    24    1   24 1
    25    2   25 1
    26    3   26 1
    27    4   27 1
    28    9   28 1
    29    9   29 1
    30    9   30 1
    31   10   31 1
    32   10   32 1
    33   10   33 1
    34   11   34 1
    35   11   35 1
    36   12   36 1
    37   12   37 1
    38   13   38 1
    39   14   39 1
    40   15   40 1
    41   16   41 1
    42   16   42 1
    43   17   43 1
    44   18   44 1
    45   21   45 1
@<TRIPOS>MOLECULE
LIGAND
   45    45     0     0     0
SMALL
NO_CHARGES

@<TRIPOS>ATOM
      1 C1         -2.0859    0.3620    8.4478 C.ar      1 <0>         0.0000
      2 C2         -1.6873    0.7057    7.1561 C.ar      1 <0>         0.0000
      3 C3         -1.6782   -0.8505    9.0041 C.ar      1 <0>         0.0000
      4 C4         -0.4734   -1.3755    6.9768 C.ar      1 <0>         0.0000
      5 C5         -0.8811   -0.1631    6.4206 C.ar      1 <0>         0.0000
      6 C6         -0.8720   -1.7192    8.2686 C.ar      1 <0>         0.0000
      7 C7         -0.4576    0.2036    5.0443 C.2       1 <0>         0.0000
      8 C8          1.9325   -1.0133    2.6768 C.2       1 <0>         0.0000
      9 C9          0.2249   -1.3614   -4.8293 C.3       1 <0>         0.0000
     10 C10         2.4955   -0.4691   -5.4530 C.3       1 <0>         0.0000
     11 C11         1.5761    0.1765   -1.0474 C.3       1 <0>         0.0000
     12 C12         0.4360    0.4372   -2.0380 C.3       1 <0>         0.0000
     13 C13         2.3649   -0.5352    1.2935 C.3       1 <0>         0.0000
     14 C14         1.1534   -0.2750    0.3710 C.3       1 <0>         0.0000
     15 C15         1.4734   -0.6402   -4.3356 C.3       1 <0>         0.0000
     16 N1          0.3597   -1.5080    0.3138 N.3       1 <0>         0.0000
     17 N2          0.7320   -0.3536    4.6161 N.am      1 <0>         0.0000
     18 N3          1.1743   -0.0714    3.3469 N.am      1 <0>         0.0000
     19 O1         -1.1696    0.9461    4.3728 O.2       1 <0>         0.0000
     20 O2          2.2555   -2.1109    3.1269 O.2       1 <0>         0.0000
     21 O3          3.2186   -1.5159    0.7230 O.3       1 <0>         0.0000
     22 S1          1.0200    0.9781   -3.6711 S.3       1 <0>         0.0000
     23 Cl1        -0.3688   -3.2149    8.9559 Cl        1 <0>         0.0000
     24 H1         -2.7133    1.0387    9.0204 H         1 <0>         0.0000
     25 H2         -2.0115    1.6532    6.7333 H         1 <0>         0.0000
     26 H3         -1.9966   -1.1048   10.0118 H         1 <0>         0.0000
     27 H4          0.1559   -2.0511    6.4010 H         1 <0>         0.0000
     28 H5         -0.2418   -0.7988   -5.6457 H         1 <0>         0.0000
     29 H6          0.4667   -2.3574   -5.2167 H         1 <0>         0.0000
     30 H7         -0.5235   -1.4725   -4.0365 H         1 <0>         0.0000
     31 H8          2.0637    0.1071   -6.2789 H         1 <0>         0.0000
     32 H9          2.8077   -1.4375   -5.8596 H         1 <0>         0.0000
     33 H10         3.3894    0.0650   -5.1112 H         1 <0>         0.0000
     34 H11         2.1631    1.1018   -0.9736 H         1 <0>         0.0000
     35 H12         2.2520   -0.5707   -1.4824 H         1 <0>         0.0000
     36 H13        -0.2073    1.2295   -1.6408 H         1 <0>         0.0000
     37 H14        -0.1907   -0.4501   -2.1649 H         1 <0>         0.0000
     38 H15         2.9484    0.3859    1.4229 H         1 <0>         0.0000
     39 H16         0.5249    0.4957    0.8291 H         1 <0>         0.0000
     40 H17         1.9240   -1.2177   -3.5214 H         1 <0>         0.0000
     41 H18        -0.4842   -1.3249   -0.2178 H         1 <0>         0.0000
     42 H19         0.0690   -1.7492    1.2550 H         1 <0>         0.0000
     43 H20         1.2684   -0.9594    5.2274 H         1 <0>         0.0000
     44 H21         0.9480    0.8148    2.9078 H         1 <0>         0.0000
     45 H22         2.7041   -2.3378    0.6655 H         1 <0>         0.0000
@<TRIPOS>BOND
     1    1    2 ar
     2    1    3 ar
     3    2    5 ar
     4    3    6 ar
     5    4    5 ar
     6    4    6 ar
     7    5    7 1
     8    6   23 1
     9    7   17 am
    10    7   19 2
    11    8   13 1
    12    8   18 am
    13    8   20 2
    14    9   15 1
    15   10   15 1
    16   11   12 1
    17   11   14 1
    18   12   22 1
    19   13   14 1
    20   13   21 1
    21   14   16 1
    22   15   22 1
    23   17   18 1
    24    1   24 1
    25    2   25 1
    26    3   26 1
    27    4   27 1
    28    9   28 1
    29    9   29 1
    30    9   30 1
    31   10   31 1
    32   10   32 1
    33   10   33 1
    34   11   34 1
    35   11   35 1
    36   12   36 1
    37   12   37 1
    38   13   38 1
    39   14   39 1
    40   15   40 1
    41   16   41 1
    42   16   42 1
    43   17   43 1
    44   18   44 1
    45   21   45 1
@<TRIPOS>MOLECULE
LIGAND
   45    45     0     0     0
SMALL
NO_CHARGES

@<TRIPOS>ATOM
      1 C1         -0.2137   -4.3455    7.5650 C.ar      1 <0>         0.0000
      2 C2          0.2593   -3.8696    6.3422 C.ar      1 <0>         0.0000
      3 C3         -0.9574   -5.5246    7.6140 C.ar      1 <0>         0.0000
      4 C4         -0.7552   -5.7517    5.2172 C.ar      1 <0>         0.0000
      5 C5         -0.0114   -4.5726    5.1683 C.ar      1 <0>         0.0000
      6 C6         -1.2282   -6.2277    6.4401 C.ar      1 <0>         0.0000
      7 C7          0.4923   -4.0645    3.8660 C.2       1 <0>         0.0000
      8 C8          1.9325   -1.0133    2.6768 C.2       1 <0>         0.0000
      9 C9         -3.5953   -0.8020   -2.4330 C.3       1 <0>         0.0000
     10 C10        -4.0047    1.3935   -1.2699 C.3       1 <0>         0.0000
     11 C11         0.2195    0.8307    0.9188 C.3       1 <0>         0.0000
     12 C12        -1.0001    1.1700    0.0549 C.3       1 <0>         0.0000
     13 C13         2.3649   -0.5352    1.2935 C.3       1 <0>         0.0000
     14 C14         1.1534   -0.2750    0.3710 C.3       1 <0>         0.0000
     15 C15        -2.9606    0.3632   -1.6834 C.3       1 <0>         0.0000
     16 N1          1.6681    0.0834   -0.9557 N.3       1 <0>         0.0000
     17 N2          0.6851   -2.6985    3.7909 N.am      1 <0>         0.0000
     18 N3          1.1665   -2.1628    2.6216 N.am      1 <0>         0.0000
     19 O1          0.7194   -4.8589    2.9568 O.2       1 <0>         0.0000
     20 O2          2.2299   -0.4108    3.7066 O.2       1 <0>         0.0000
     21 O3          3.2186   -1.5159    0.7230 O.3       1 <0>         0.0000
     22 S1         -2.0977   -0.2515   -0.2193 S.3       1 <0>         0.0000
     23 Cl1        -2.1455   -7.6828    6.5013 Cl        1 <0>         0.0000
     24 H1         -0.0025   -3.7982    8.4789 H         1 <0>         0.0000
     25 H2          0.8377   -2.9496    6.3168 H         1 <0>         0.0000
     26 H3         -1.3194   -5.8833    8.5740 H         1 <0>         0.0000
     27 H4         -0.9644   -6.2984    4.2999 H         1 <0>         0.0000
     28 H5         -4.3436   -1.2969   -1.8040 H         1 <0>         0.0000
     29 H6         -4.1065   -0.4613   -3.3404 H         1 <0>         0.0000
     30 H7         -2.8540   -1.5571   -2.7183 H         1 <0>         0.0000
     31 H8         -4.7593    0.9323   -0.6229 H         1 <0>         0.0000
     32 H9         -4.5284    1.8023   -2.1412 H         1 <0>         0.0000
     33 H10        -3.5593    2.2264   -0.7139 H         1 <0>         0.0000
     34 H11        -0.1531    0.5335    1.9082 H         1 <0>         0.0000
     35 H12         0.7975    1.7493    1.0822 H         1 <0>         0.0000
     36 H13        -0.6573    1.5138   -0.9268 H         1 <0>         0.0000
     37 H14        -1.5832    1.9849    0.4933 H         1 <0>         0.0000
     38 H15         2.9484    0.3859    1.4229 H         1 <0>         0.0000
     39 H16         0.5915   -1.2082    0.2610 H         1 <0>         0.0000
     40 H17        -2.2171    0.8435   -2.3283 H         1 <0>         0.0000
     41 H18         0.8845    0.1717   -1.5934 H         1 <0>         0.0000
     42 H19         2.2416   -0.6802   -1.2969 H         1 <0>         0.0000
     43 H20         0.4750   -2.1026    4.5842 H         1 <0>         0.0000
     44 H21         0.9630   -2.6038    1.7309 H         1 <0>         0.0000
     45 H22         2.7041   -2.3378    0.6655 H         1 <0>         0.0000
@<TRIPOS>BOND
     1    1    2 ar
     2    1    3 ar
     3    2    5 ar
     4    3    6 ar
     5    4    5 ar
     6    4    6 ar
     7    5    7 1
     8    6   23 1
     9    7   17 am
    10    7   19 2
    11    8   13 1
    12    8   18 am
    13    8   20 2
    14    9   15 1
    15   10   15 1
    16   11   12 1
    17   11   14 1
    18   12   22 1
    19   13   14 1
    20   13   21 1
    21   14   16 1
    22   15   22 1
    23   17   18 1
    24    1   24 1
    25    2   25 1
    26    3   26 1
    27    4   27 1
    28    9   28 1
    29    9   29 1
    30    9   30 1
    31   10   31 1
    32   10   32 1
    33   10   33 1
    34   11   34 1
    35   11   35 1
    36   12   36 1
    37   12   37 1
    38   13   38 1
    39   14   39 1
    40   15   40 1
    41   16   41 1
    42   16   42 1
    43   17   43 1
    44   18   44 1
    45   21   45 1
@<TRIPOS>MOLECULE
LIGAND
   45    45     0     0     0
SMALL
NO_CHARGES

@<TRIPOS>ATOM
      1 C1         -2.3305   -2.8430    7.5352 C.ar      1 <0>         0.0000
      2 C2         -1.8950   -2.2446    6.3529 C.ar      1 <0>         0.0000
      3 C3         -1.8838   -4.1195    7.8766 C.ar      1 <0>         0.0000
      4 C4         -0.5660   -4.1993    5.8532 C.ar      1 <0>         0.0000
      5 C5         -1.0128   -2.9227    5.5119 C.ar      1 <0>         0.0000
      6 C6         -1.0015   -4.7977    7.0355 C.ar      1 <0>         0.0000
      7 C7         -0.5498   -2.2848    4.2523 C.2       1 <0>         0.0000
      8 C8          1.9325   -1.0133    2.6768 C.2       1 <0>         0.0000
      9 C9          0.9992    5.4655    0.4702 C.3       1 <0>         0.0000
     10 C10         0.2949    5.8734    2.8530 C.3       1 <0>         0.0000
     11 C11         0.2195    0.8307    0.9188 C.3       1 <0>         0.0000
     12 C12         0.8590    2.2074    1.1305 C.3       1 <0>         0.0000
     13 C13         2.3649   -0.5352    1.2935 C.3       1 <0>         0.0000
     14 C14         1.1534   -0.2750    0.3710 C.3       1 <0>         0.0000
     15 C15         0.8241    4.8515    1.8540 C.3       1 <0>         0.0000
     16 N1          1.6681    0.0834   -0.9557 N.3       1 <0>         0.0000
     17 N2          0.6851   -2.6985    3.7909 N.am      1 <0>         0.0000
     18 N3          1.1665   -2.1628    2.6216 N.am      1 <0>         0.0000
     19 O1         -1.2703   -1.4609    3.6944 O.2       1 <0>         0.0000
     20 O2          2.2299   -0.4108    3.7066 O.2       1 <0>         0.0000
     21 O3          3.2186   -1.5159    0.7230 O.3       1 <0>         0.0000
     22 S1         -0.3102    3.4478    1.7590 S.3       1 <0>         0.0000
     23 Cl1        -0.4502   -6.3727    7.4576 Cl        1 <0>         0.0000
     24 H1         -3.0172   -2.3146    8.1901 H         1 <0>         0.0000
     25 H2         -2.2503   -1.2495    6.0977 H         1 <0>         0.0000
     26 H3         -2.2317   -4.5731    8.8010 H         1 <0>         0.0000
     27 H4          0.1227   -4.7258    5.1954 H         1 <0>         0.0000
     28 H5          0.0422    5.8509    0.1009 H         1 <0>         0.0000
     29 H6          1.7019    6.3059    0.4928 H         1 <0>         0.0000
     30 H7          1.3622    4.7326   -0.2594 H         1 <0>         0.0000
     31 H8         -0.6729    6.2651    2.5204 H         1 <0>         0.0000
     32 H9          0.9758    6.7263    2.9496 H         1 <0>         0.0000
     33 H10         0.1486    5.4355    3.8470 H         1 <0>         0.0000
     34 H11        -0.6259    0.9652    0.2307 H         1 <0>         0.0000
     35 H12        -0.2197    0.5004    1.8688 H         1 <0>         0.0000
     36 H13         1.2423    2.5738    0.1722 H         1 <0>         0.0000
     37 H14         1.7108    2.1489    1.8142 H         1 <0>         0.0000
     38 H15         2.9484    0.3859    1.4229 H         1 <0>         0.0000
     39 H16         0.5915   -1.2082    0.2610 H         1 <0>         0.0000
     40 H17         1.7903    4.4730    2.2043 H         1 <0>         0.0000
     41 H18         0.8845    0.1717   -1.5934 H         1 <0>         0.0000
     42 H19         2.2416   -0.6802   -1.2969 H         1 <0>         0.0000
     43 H20         1.2257   -3.3847    4.3060 H         1 <0>         0.0000
     44 H21         0.9630   -2.6038    1.7309 H         1 <0>         0.0000
     45 H22         2.7041   -2.3378    0.6655 H         1 <0>         0.0000
@<TRIPOS>BOND
     1    1    2 ar
     2    1    3 ar
     3    2    5 ar
     4    3    6 ar
     5    4    5 ar
     6    4    6 ar
     7    5    7 1
     8    6   23 1
     9    7   17 am
    10    7   19 2
    11    8   13 1
    12    8   18 am
    13    8   20 2
    14    9   15 1
    15   10   15 1
    16   11   12 1
    17   11   14 1
    18   12   22 1
    19   13   14 1
    20   13   21 1
    21   14   16 1
    22   15   22 1
    23   17   18 1
    24    1   24 1
    25    2   25 1
    26    3   26 1
    27    4   27 1
    28    9   28 1
    29    9   29 1
    30    9   30 1
    31   10   31 1
    32   10   32 1
    33   10   33 1
    34   11   34 1
    35   11   35 1
    36   12   36 1
    37   12   37 1
    38   13   38 1
    39   14   39 1
    40   15   40 1
    41   16   41 1
    42   16   42 1
    43   17   43 1
    44   18   44 1
    45   21   45 1
@<TRIPOS>MOLECULE
LIGAND
   45    45     0     0     0
SMALL
NO_CHARGES

@<TRIPOS>ATOM
      1 C1          1.3200   -1.9638    8.8676 C.ar      1 <0>         0.0000
      2 C2          1.6218   -1.5213    7.5797 C.ar      1 <0>         0.0000
      3 C3          2.1606   -1.6378    9.9320 C.ar      1 <0>         0.0000
      4 C4          3.6050   -0.4271    8.4204 C.ar      1 <0>         0.0000
      5 C5          2.7643   -0.7530    7.3561 C.ar      1 <0>         0.0000
      6 C6          3.3031   -0.8695    9.7084 C.ar      1 <0>         0.0000
      7 C7          3.0854   -0.2826    5.9837 C.2       1 <0>         0.0000
      8 C8          1.9325   -1.0133    2.6768 C.2       1 <0>         0.0000
      9 C9         -3.5456    2.3208    3.0565 C.3       1 <0>         0.0000
     10 C10        -4.0220    0.6377    1.2453 C.3       1 <0>         0.0000
     11 C11         0.2195    0.8307    0.9188 C.3       1 <0>         0.0000
     12 C12        -1.0001    1.1700    0.0549 C.3       1 <0>         0.0000
     13 C13         2.3649   -0.5352    1.2935 C.3       1 <0>         0.0000
     14 C14         1.1534   -0.2750    0.3710 C.3       1 <0>         0.0000
     15 C15        -2.9459    1.4397    1.9673 C.3       1 <0>         0.0000
     16 N1          1.6681    0.0834   -0.9557 N.3       1 <0>         0.0000
     17 N2          2.6023   -1.0670    4.9540 N.am      1 <0>         0.0000
     18 N3          2.8469   -0.6810    3.6590 N.am      1 <0>         0.0000
     19 O1          3.7293    0.7533    5.8374 O.2       1 <0>         0.0000
     20 O2          0.8915   -1.6405    2.8632 O.2       1 <0>         0.0000
     21 O3          3.2186   -1.5159    0.7230 O.3       1 <0>         0.0000
     22 S1         -2.0492    2.4644    0.7791 S.3       1 <0>         0.0000
     23 Cl1         4.3397   -0.4674   11.0222 Cl        1 <0>         0.0000
     24 H1          0.4302   -2.5616    9.0415 H         1 <0>         0.0000
     25 H2          0.9591   -1.7818    6.7584 H         1 <0>         0.0000
     26 H3          1.9126   -1.9897   10.9300 H         1 <0>         0.0000
     27 H4          4.4953    0.1729    8.2431 H         1 <0>         0.0000
     28 H5         -4.2705    3.0197    2.6246 H         1 <0>         0.0000
     29 H6         -4.0763    1.7229    3.8059 H         1 <0>         0.0000
     30 H7         -2.7806    2.9152    3.5690 H         1 <0>         0.0000
     31 H8         -4.7543    1.3108    0.7855 H         1 <0>         0.0000
     32 H9         -4.5673   -0.0125    1.9385 H         1 <0>         0.0000
     33 H10        -3.6015    0.0146    0.4477 H         1 <0>         0.0000
     34 H11        -0.1531    0.5335    1.9082 H         1 <0>         0.0000
     35 H12         0.7975    1.7493    1.0822 H         1 <0>         0.0000
     36 H13        -1.6176    0.2727   -0.0585 H         1 <0>         0.0000
     37 H14        -0.7009    1.4813   -0.9501 H         1 <0>         0.0000
     38 H15         2.9484    0.3859    1.4229 H         1 <0>         0.0000
     39 H16         0.5915   -1.2082    0.2610 H         1 <0>         0.0000
     40 H17        -2.2253    0.7496    2.4190 H         1 <0>         0.0000
     41 H18         0.8845    0.1717   -1.5934 H         1 <0>         0.0000
     42 H19         2.2416   -0.6802   -1.2969 H         1 <0>         0.0000
     43 H20         2.0769   -1.9119    5.1509 H         1 <0>         0.0000
     44 H21         3.6858   -0.1599    3.4266 H         1 <0>         0.0000
     45 H22         2.7041   -2.3378    0.6655 H         1 <0>         0.0000
@<TRIPOS>BOND
     1    1    2 ar
     2    1    3 ar
     3    2    5 ar
     4    3    6 ar
     5    4    5 ar
     6    4    6 ar
     7    5    7 1
     8    6   23 1
     9    7   17 am
    10    7   19 2
    11    8   13 1
    12    8   18 am
    13    8   20 2
    14    9   15 1
    15   10   15 1
    16   11   12 1
    17   11   14 1
    18   12   22 1
    19   13   14 1
    20   13   21 1
    21   14   16 1
    22   15   22 1
    23   17   18 1
    24    1   24 1
    25    2   25 1
    26    3   26 1
    27    4   27 1
    28    9   28 1
    29    9   29 1
    30    9   30 1
    31   10   31 1
    32   10   32 1
    33   10   33 1
    34   11   34 1
    35   11   35 1
    36   12   36 1
    37   12   37 1
    38   13   38 1
    39   14   39 1
    40   15   40 1
    41   16   41 1
    42   16   42 1
    43   17   43 1
    44   18   44 1
    45   21   45 1
@<TRIPOS>MOLECULE
LIGAND
   45    45     0     0     0
SMALL
NO_CHARGES

@<TRIPOS>ATOM
      1 C1         -0.4443   -1.6789    8.4406 C.ar      1 <0>         0.0000
      2 C2          0.0752   -1.3786    7.1814 C.ar      1 <0>         0.0000
      3 C3         -0.0644   -0.9236    9.5500 C.ar      1 <0>         0.0000
      4 C4          1.3546    0.4323    8.1411 C.ar      1 <0>         0.0000
      5 C5          0.9746   -0.3231    7.0316 C.ar      1 <0>         0.0000
      6 C6          0.8350    0.1320    9.4003 C.ar      1 <0>         0.0000
      7 C7          1.5280   -0.0043    5.6900 C.2       1 <0>         0.0000
      8 C8          1.9325   -1.0133    2.6768 C.2       1 <0>         0.0000
      9 C9          0.2249   -1.3614   -4.8293 C.3       1 <0>         0.0000
     10 C10         2.4955   -0.4691   -5.4530 C.3       1 <0>         0.0000
     11 C11         1.5761    0.1765   -1.0474 C.3       1 <0>         0.0000
     12 C12         0.4360    0.4372   -2.0380 C.3       1 <0>         0.0000
     13 C13         2.3649   -0.5352    1.2935 C.3       1 <0>         0.0000
     14 C14         1.1534   -0.2750    0.3710 C.3       1 <0>         0.0000
     15 C15         1.4734   -0.6402   -4.3356 C.3       1 <0>         0.0000
     16 N1          0.3597   -1.5080    0.3138 N.3       1 <0>         0.0000
     17 N2          0.7320   -0.3536    4.6161 N.am      1 <0>         0.0000
     18 N3          1.1743   -0.0714    3.3469 N.am      1 <0>         0.0000
     19 O1          2.6215    0.5492    5.6056 O.2       1 <0>         0.0000
     20 O2          2.2555   -2.1109    3.1269 O.2       1 <0>         0.0000
     21 O3          3.2186   -1.5159    0.7230 O.3       1 <0>         0.0000
     22 S1          1.0200    0.9781   -3.6711 S.3       1 <0>         0.0000
     23 Cl1         1.3030    1.0639   10.7696 Cl        1 <0>         0.0000
     24 H1         -1.1448   -2.5006    8.5569 H         1 <0>         0.0000
     25 H2         -0.2283   -1.9745    6.3244 H         1 <0>         0.0000
     26 H3         -0.4775   -1.1693   10.5250 H         1 <0>         0.0000
     27 H4          2.0560    1.2555    8.0212 H         1 <0>         0.0000
     28 H5         -0.2418   -0.7988   -5.6457 H         1 <0>         0.0000
     29 H6          0.4667   -2.3574   -5.2167 H         1 <0>         0.0000
     30 H7         -0.5235   -1.4725   -4.0365 H         1 <0>         0.0000
     31 H8          2.0637    0.1071   -6.2789 H         1 <0>         0.0000
     32 H9          2.8077   -1.4375   -5.8596 H         1 <0>         0.0000
     33 H10         3.3894    0.0650   -5.1112 H         1 <0>         0.0000
     34 H11         2.1631    1.1018   -0.9736 H         1 <0>         0.0000
     35 H12         2.2520   -0.5707   -1.4824 H         1 <0>         0.0000
     36 H13        -0.2073    1.2295   -1.6408 H         1 <0>         0.0000
     37 H14        -0.1907   -0.4501   -2.1649 H         1 <0>         0.0000
     38 H15         2.9484    0.3859    1.4229 H         1 <0>         0.0000
     39 H16         0.5249    0.4957    0.8291 H         1 <0>         0.0000
     40 H17         1.9240   -1.2177   -3.5214 H         1 <0>         0.0000
     41 H18        -0.4842   -1.3249   -0.2178 H         1 <0>         0.0000
     42 H19         0.0690   -1.7492    1.2550 H         1 <0>         0.0000
     43 H20        -0.1619   -0.8097    4.7623 H         1 <0>         0.0000
     44 H21         0.9480    0.8148    2.9078 H         1 <0>         0.0000
     45 H22         2.7041   -2.3378    0.6655 H         1 <0>         0.0000
@<TRIPOS>BOND
     1    1    2 ar
     2    1    3 ar
     3    2    5 ar
     4    3    6 ar
     5    4    5 ar
     6    4    6 ar
     7    5    7 1
     8    6   23 1
     9    7   17 am
    10    7   19 2
    11    8   13 1
    12    8   18 am
    13    8   20 2
    14    9   15 1
    15   10   15 1
    16   11   12 1
    17   11   14 1
    18   12   22 1
    19   13   14 1
    20   13   21 1
    21   14   16 1
    22   15   22 1
    23   17   18 1
    24    1   24 1
    25    2   25 1
    26    3   26 1
    27    4   27 1
    28    9   28 1
    29    9   29 1
    30    9   30 1
    31   10   31 1
    32   10   32 1
    33   10   33 1
    34   11   34 1
    35   11   35 1
    36   12   36 1
    37   12   37 1
    38   13   38 1
    39   14   39 1
    40   15   40 1
    41   16   41 1
    42   16   42 1
    43   17   43 1
    44   18   44 1
    45   21   45 1
@<TRIPOS>MOLECULE
LIGAND
   45    45     0     0     0
SMALL
NO_CHARGES

@<TRIPOS>ATOM
      1 C1          2.4230   -4.2883    8.5214 C.ar      1 <0>         0.0000
      2 C2          2.6907   -3.9683    7.1905 C.ar      1 <0>         0.0000
      3 C3          2.2530   -3.2726    9.4623 C.ar      1 <0>         0.0000
      4 C4          2.6187   -1.6170    7.7412 C.ar      1 <0>         0.0000
      5 C5          2.7886   -2.6327    6.8003 C.ar      1 <0>         0.0000
      6 C6          2.3509   -1.9370    9.0722 C.ar      1 <0>         0.0000
      7 C7          3.0744   -2.2928    5.3823 C.2       1 <0>         0.0000
      8 C8          1.9325   -1.0133    2.6768 C.2       1 <0>         0.0000
      9 C9         -2.4695    4.5098    0.4722 C.3       1 <0>         0.0000
     10 C10        -0.2177    4.7761   -0.6229 C.3       1 <0>         0.0000
     11 C11         0.2195    0.8307    0.9188 C.3       1 <0>         0.0000
     12 C12         0.8590    2.2074    1.1305 C.3       1 <0>         0.0000
     13 C13         2.3649   -0.5352    1.2935 C.3       1 <0>         0.0000
     14 C14         1.1534   -0.2750    0.3710 C.3       1 <0>         0.0000
     15 C15        -1.1189    3.8600    0.1963 C.3       1 <0>         0.0000
     16 N1          1.6681    0.0834   -0.9557 N.3       1 <0>         0.0000
     17 N2          2.6023   -1.0670    4.9540 N.am      1 <0>         0.0000
     18 N3          2.8469   -0.6810    3.6590 N.am      1 <0>         0.0000
     19 O1          3.7083   -3.0847    4.6892 O.2       1 <0>         0.0000
     20 O2          0.8915   -1.6405    2.8632 O.2       1 <0>         0.0000
     21 O3          3.2186   -1.5159    0.7230 O.3       1 <0>         0.0000
     22 S1         -0.3102    3.4478    1.7590 S.3       1 <0>         0.0000
     23 Cl1         2.1407   -0.6842   10.2336 Cl        1 <0>         0.0000
     24 H1          2.3465   -5.3282    8.8249 H         1 <0>         0.0000
     25 H2          2.8213   -4.7686    6.4665 H         1 <0>         0.0000
     26 H3          2.0449   -3.5371   10.4958 H         1 <0>         0.0000
     27 H4          2.6951   -0.5760    7.4338 H         1 <0>         0.0000
     28 H5         -2.3352    5.4486    1.0211 H         1 <0>         0.0000
     29 H6         -2.9944    4.7495   -0.4593 H         1 <0>         0.0000
     30 H7         -3.1176    3.8651    1.0767 H         1 <0>         0.0000
     31 H8         -0.0488    5.7190   -0.0908 H         1 <0>         0.0000
     32 H9         -0.6728    5.0239   -1.5883 H         1 <0>         0.0000
     33 H10         0.7629    4.3240   -0.8105 H         1 <0>         0.0000
     34 H11        -0.6259    0.9652    0.2307 H         1 <0>         0.0000
     35 H12        -0.2197    0.5004    1.8688 H         1 <0>         0.0000
     36 H13         1.2423    2.5738    0.1722 H         1 <0>         0.0000
     37 H14         1.7108    2.1489    1.8142 H         1 <0>         0.0000
     38 H15         2.9484    0.3859    1.4229 H         1 <0>         0.0000
     39 H16         0.5915   -1.2082    0.2610 H         1 <0>         0.0000
     40 H17        -1.2750    2.9249   -0.3521 H         1 <0>         0.0000
     41 H18         0.8845    0.1717   -1.5934 H         1 <0>         0.0000
     42 H19         2.2416   -0.6802   -1.2969 H         1 <0>         0.0000
     43 H20         2.0849   -0.4638    5.5841 H         1 <0>         0.0000
     44 H21         3.6858   -0.1599    3.4266 H         1 <0>         0.0000
     45 H22         2.7041   -2.3378    0.6655 H         1 <0>         0.0000
@<TRIPOS>BOND
     1    1    2 ar
     2    1    3 ar
     3    2    5 ar
     4    3    6 ar
     5    4    5 ar
     6    4    6 ar
     7    5    7 1
     8    6   23 1
     9    7   17 am
    10    7   19 2
    11    8   13 1
    12    8   18 am
    13    8   20 2
    14    9   15 1
    15   10   15 1
    16   11   12 1
    17   11   14 1
    18   12   22 1
    19   13   14 1
    20   13   21 1
    21   14   16 1
    22   15   22 1
    23   17   18 1
    24    1   24 1
    25    2   25 1
    26    3   26 1
    27    4   27 1
    28    9   28 1
    29    9   29 1
    30    9   30 1
    31   10   31 1
    32   10   32 1
    33   10   33 1
    34   11   34 1
    35   11   35 1
    36   12   36 1
    37   12   37 1
    38   13   38 1
    39   14   39 1
    40   15   40 1
    41   16   41 1
    42   16   42 1
    43   17   43 1
    44   18   44 1
    45   21   45 1
@<TRIPOS>MOLECULE
LIGAND
   45    45     0     0     0
SMALL
NO_CHARGES

@<TRIPOS>ATOM
      1 C1          2.3780   -0.2776    9.6931 C.ar      1 <0>         0.0000
      2 C2          2.6800    0.1631    8.4046 C.ar      1 <0>         0.0000
      3 C3          2.1604   -1.6343    9.9331 C.ar      1 <0>         0.0000
      4 C4          2.5467   -2.1098    7.5961 C.ar      1 <0>         0.0000
      5 C5          2.7643   -0.7530    7.3561 C.ar      1 <0>         0.0000
      6 C6          2.2447   -2.5504    8.8846 C.ar      1 <0>         0.0000
      7 C7          3.0854   -0.2826    5.9837 C.2       1 <0>         0.0000
      8 C8          1.9325   -1.0133    2.6768 C.2       1 <0>         0.0000
      9 C9          0.3770    5.2187   -0.2001 C.3       1 <0>         0.0000
     10 C10         0.1630    6.1072    2.1462 C.3       1 <0>         0.0000
     11 C11         0.2195    0.8307    0.9188 C.3       1 <0>         0.0000
     12 C12         0.8590    2.2074    1.1305 C.3       1 <0>         0.0000
     13 C13         2.3649   -0.5352    1.2935 C.3       1 <0>         0.0000
     14 C14         1.1534   -0.2750    0.3710 C.3       1 <0>         0.0000
     15 C15         0.6016    4.9327    1.2798 C.3       1 <0>         0.0000
     16 N1          1.6681    0.0834   -0.9557 N.3       1 <0>         0.0000
     17 N2          2.6023   -1.0670    4.9540 N.am      1 <0>         0.0000
     18 N3          2.8469   -0.6810    3.6590 N.am      1 <0>         0.0000
     19 O1          3.7293    0.7533    5.8374 O.2       1 <0>         0.0000
     20 O2          0.8915   -1.6405    2.8632 O.2       1 <0>         0.0000
     21 O3          3.2186   -1.5159    0.7230 O.3       1 <0>         0.0000
     22 S1         -0.3102    3.4478    1.7590 S.3       1 <0>         0.0000
     23 Cl1         1.9766   -4.2245    9.1816 Cl        1 <0>         0.0000
     24 H1          2.3127    0.4358   10.5093 H         1 <0>         0.0000
     25 H2          2.8474    1.2228    8.2300 H         1 <0>         0.0000
     26 H3          1.9260   -1.9630   10.9423 H         1 <0>         0.0000
     27 H4          2.6137   -2.8222    6.7763 H         1 <0>         0.0000
     28 H5         -0.6832    5.4173   -0.3928 H         1 <0>         0.0000
     29 H6          0.9382    6.1019   -0.5252 H         1 <0>         0.0000
     30 H7          0.6728    4.3718   -0.8297 H         1 <0>         0.0000
     31 H8         -0.9005    6.3195    1.9896 H         1 <0>         0.0000
     32 H9          0.7176    7.0179    1.8939 H         1 <0>         0.0000
     33 H10         0.3040    5.9029    3.2137 H         1 <0>         0.0000
     34 H11        -0.6259    0.9652    0.2307 H         1 <0>         0.0000
     35 H12        -0.2197    0.5004    1.8688 H         1 <0>         0.0000
     36 H13         1.2423    2.5738    0.1722 H         1 <0>         0.0000
     37 H14         1.7108    2.1489    1.8142 H         1 <0>         0.0000
     38 H15         2.9484    0.3859    1.4229 H         1 <0>         0.0000
     39 H16         0.5915   -1.2082    0.2610 H         1 <0>         0.0000
     40 H17         1.6656    4.7372    1.4509 H         1 <0>         0.0000
     41 H18         0.8845    0.1717   -1.5934 H         1 <0>         0.0000
     42 H19         2.2416   -0.6802   -1.2969 H         1 <0>         0.0000
     43 H20         2.0769   -1.9119    5.1509 H         1 <0>         0.0000
     44 H21         3.6858   -0.1599    3.4266 H         1 <0>         0.0000
     45 H22         2.7041   -2.3378    0.6655 H         1 <0>         0.0000
@<TRIPOS>BOND
     1    1    2 ar
     2    1    3 ar
     3    2    5 ar
     4    3    6 ar
     5    4    5 ar
     6    4    6 ar
     7    5    7 1
     8    6   23 1
     9    7   17 am
    10    7   19 2
    11    8   13 1
    12    8   18 am
    13    8   20 2
    14    9   15 1
    15   10   15 1
    16   11   12 1
    17   11   14 1
    18   12   22 1
    19   13   14 1
    20   13   21 1
    21   14   16 1
    22   15   22 1
    23   17   18 1
    24    1   24 1
    25    2   25 1
    26    3   26 1
    27    4   27 1
    28    9   28 1
    29    9   29 1
    30    9   30 1
    31   10   31 1
    32   10   32 1
    33   10   33 1
    34   11   34 1
    35   11   35 1
    36   12   36 1
    37   12   37 1
    38   13   38 1
    39   14   39 1
    40   15   40 1
    41   16   41 1
    42   16   42 1
    43   17   43 1
    44   18   44 1
    45   21   45 1
@<TRIPOS>MOLECULE
LIGAND
   45    45     0     0     0
SMALL
NO_CHARGES

@<TRIPOS>ATOM
      1 C1         -0.9264   -0.6930    8.4760 C.ar      1 <0>         0.0000
      2 C2         -0.4061   -0.3932    7.2170 C.ar      1 <0>         0.0000
      3 C3         -0.0659   -0.9225    9.5497 C.ar      1 <0>         0.0000
      4 C4          1.8351   -0.5526    8.1053 C.ar      1 <0>         0.0000
      5 C5          0.9746   -0.3231    7.0316 C.ar      1 <0>         0.0000
      6 C6          1.3148   -0.8524    9.3643 C.ar      1 <0>         0.0000
      7 C7          1.5280   -0.0043    5.6900 C.2       1 <0>         0.0000
      8 C8          1.9325   -1.0133    2.6768 C.2       1 <0>         0.0000
      9 C9          0.2249   -1.3614   -4.8293 C.3       1 <0>         0.0000
     10 C10         2.4955   -0.4691   -5.4530 C.3       1 <0>         0.0000
     11 C11         1.5761    0.1765   -1.0474 C.3       1 <0>         0.0000
     12 C12         0.4360    0.4372   -2.0380 C.3       1 <0>         0.0000
     13 C13         2.3649   -0.5352    1.2935 C.3       1 <0>         0.0000
     14 C14         1.1534   -0.2750    0.3710 C.3       1 <0>         0.0000
     15 C15         1.4734   -0.6402   -4.3356 C.3       1 <0>         0.0000
     16 N1          0.3597   -1.5080    0.3138 N.3       1 <0>         0.0000
     17 N2          0.7320   -0.3536    4.6161 N.am      1 <0>         0.0000
     18 N3          1.1743   -0.0714    3.3469 N.am      1 <0>         0.0000
     19 O1          2.6215    0.5492    5.6056 O.2       1 <0>         0.0000
     20 O2          2.2555   -2.1109    3.1269 O.2       1 <0>         0.0000
     21 O3          3.2186   -1.5159    0.7230 O.3       1 <0>         0.0000
     22 S1          1.0200    0.9781   -3.6711 S.3       1 <0>         0.0000
     23 Cl1         2.3759   -1.1353   10.6896 Cl        1 <0>         0.0000
     24 H1         -2.0014   -0.7472    8.6202 H         1 <0>         0.0000
     25 H2         -1.0867   -0.2164    6.3881 H         1 <0>         0.0000
     26 H3         -0.4859   -1.1551   10.5249 H         1 <0>         0.0000
     27 H4          2.9117   -0.4967    7.9578 H         1 <0>         0.0000
     28 H5         -0.2418   -0.7988   -5.6457 H         1 <0>         0.0000
     29 H6          0.4667   -2.3574   -5.2167 H         1 <0>         0.0000
     30 H7         -0.5235   -1.4725   -4.0365 H         1 <0>         0.0000
     31 H8          2.0637    0.1071   -6.2789 H         1 <0>         0.0000
     32 H9          2.8077   -1.4375   -5.8596 H         1 <0>         0.0000
     33 H10         3.3894    0.0650   -5.1112 H         1 <0>         0.0000
     34 H11         2.1631    1.1018   -0.9736 H         1 <0>         0.0000
     35 H12         2.2520   -0.5707   -1.4824 H         1 <0>         0.0000
     36 H13        -0.2073    1.2295   -1.6408 H         1 <0>         0.0000
     37 H14        -0.1907   -0.4501   -2.1649 H         1 <0>         0.0000
     38 H15         2.9484    0.3859    1.4229 H         1 <0>         0.0000
     39 H16         0.5249    0.4957    0.8291 H         1 <0>         0.0000
     40 H17         1.9240   -1.2177   -3.5214 H         1 <0>         0.0000
     41 H18        -0.4842   -1.3249   -0.2178 H         1 <0>         0.0000
     42 H19         0.0690   -1.7492    1.2550 H         1 <0>         0.0000
     43 H20        -0.1619   -0.8097    4.7623 H         1 <0>         0.0000
     44 H21         0.9480    0.8148    2.9078 H         1 <0>         0.0000
     45 H22         2.7041   -2.3378    0.6655 H         1 <0>         0.0000
@<TRIPOS>BOND
     1    1    2 ar
     2    1    3 ar
     3    2    5 ar
     4    3    6 ar
     5    4    5 ar
     6    4    6 ar
     7    5    7 1
     8    6   23 1
     9    7   17 am
    10    7   19 2
    11    8   13 1
    12    8   18 am
    13    8   20 2
    14    9   15 1
    15   10   15 1
    16   11   12 1
    17   11   14 1
    18   12   22 1
    19   13   14 1
    20   13   21 1
    21   14   16 1
    22   15   22 1
    23   17   18 1
    24    1   24 1
    25    2   25 1
    26    3   26 1
    27    4   27 1
    28    9   28 1
    29    9   29 1
    30    9   30 1
    31   10   31 1
    32   10   32 1
    33   10   33 1
    34   11   34 1
    35   11   35 1
    36   12   36 1
    37   12   37 1
    38   13   38 1
    39   14   39 1
    40   15   40 1
    41   16   41 1
    42   16   42 1
    43   17   43 1
    44   18   44 1
    45   21   45 1
@<TRIPOS>MOLECULE
LIGAND
   45    45     0     0     0
SMALL
NO_CHARGES

@<TRIPOS>ATOM
      1 C1         -2.8134   -3.6397    6.9542 C.ar      1 <0>         0.0000
      2 C2         -2.3780   -3.0405    5.7723 C.ar      1 <0>         0.0000
      3 C3         -1.8836   -4.1212    7.8758 C.ar      1 <0>         0.0000
      4 C4         -0.0829   -3.4042    6.4334 C.ar      1 <0>         0.0000
      5 C5         -1.0128   -2.9227    5.5119 C.ar      1 <0>         0.0000
      6 C6         -0.5183   -4.0035    7.6154 C.ar      1 <0>         0.0000
      7 C7         -0.5498   -2.2848    4.2523 C.2       1 <0>         0.0000
      8 C8          1.9325   -1.0133    2.6768 C.2       1 <0>         0.0000
      9 C9         -4.5752    3.1779    0.0331 C.3       1 <0>         0.0000
     10 C10        -2.7668    3.3107   -1.7140 C.3       1 <0>         0.0000
     11 C11         0.2195    0.8307    0.9188 C.3       1 <0>         0.0000
     12 C12        -1.0001    1.1700    0.0549 C.3       1 <0>         0.0000
     13 C13         2.3649   -0.5352    1.2935 C.3       1 <0>         0.0000
     14 C14         1.1534   -0.2750    0.3710 C.3       1 <0>         0.0000
     15 C15        -3.3066    2.5373   -0.5169 C.3       1 <0>         0.0000
     16 N1          1.6681    0.0834   -0.9557 N.3       1 <0>         0.0000
     17 N2          0.6851   -2.6985    3.7909 N.am      1 <0>         0.0000
     18 N3          1.1665   -2.1628    2.6216 N.am      1 <0>         0.0000
     19 O1         -1.2703   -1.4609    3.6944 O.2       1 <0>         0.0000
     20 O2          2.2299   -0.4108    3.7066 O.2       1 <0>         0.0000
     21 O3          3.2186   -1.5159    0.7230 O.3       1 <0>         0.0000
     22 S1         -2.0492    2.4644    0.7791 S.3       1 <0>         0.0000
     23 Cl1         0.6285   -4.5974    8.7532 Cl        1 <0>         0.0000
     24 H1         -3.8765   -3.7310    7.1569 H         1 <0>         0.0000
     25 H2         -3.1122   -2.6692    5.0619 H         1 <0>         0.0000
     26 H3         -2.2377   -4.5858    8.7924 H         1 <0>         0.0000
     27 H4          0.9816   -3.3106    6.2279 H         1 <0>         0.0000
     28 H5         -4.3764    4.2092    0.3452 H         1 <0>         0.0000
     29 H6         -5.3650    3.2137   -0.7256 H         1 <0>         0.0000
     30 H7         -4.9604    2.6385    0.9059 H         1 <0>         0.0000
     31 H8         -2.5401    4.3441   -1.4288 H         1 <0>         0.0000
     32 H9         -3.5004    3.3505   -2.5268 H         1 <0>         0.0000
     33 H10        -1.8438    2.8672   -2.1048 H         1 <0>         0.0000
     34 H11        -0.1531    0.5335    1.9082 H         1 <0>         0.0000
     35 H12         0.7975    1.7493    1.0822 H         1 <0>         0.0000
     36 H13        -1.6176    0.2727   -0.0585 H         1 <0>         0.0000
     37 H14        -0.7009    1.4813   -0.9501 H         1 <0>         0.0000
     38 H15         2.9484    0.3859    1.4229 H         1 <0>         0.0000
     39 H16         0.5915   -1.2082    0.2610 H         1 <0>         0.0000
     40 H17        -3.5264    1.5088   -0.8227 H         1 <0>         0.0000
     41 H18         0.8845    0.1717   -1.5934 H         1 <0>         0.0000
     42 H19         2.2416   -0.6802   -1.2969 H         1 <0>         0.0000
     43 H20         1.2257   -3.3847    4.3060 H         1 <0>         0.0000
     44 H21         0.9630   -2.6038    1.7309 H         1 <0>         0.0000
     45 H22         2.7041   -2.3378    0.6655 H         1 <0>         0.0000
@<TRIPOS>BOND
     1    1    2 ar
     2    1    3 ar
     3    2    5 ar
     4    3    6 ar
     5    4    5 ar
     6    4    6 ar
     7    5    7 1
     8    6   23 1
     9    7   17 am
    10    7   19 2
    11    8   13 1
    12    8   18 am
    13    8   20 2
    14    9   15 1
    15   10   15 1
    16   11   12 1
    17   11   14 1
    18   12   22 1
    19   13   14 1
    20   13   21 1
    21   14   16 1
    22   15   22 1
    23   17   18 1
    24    1   24 1
    25    2   25 1
    26    3   26 1
    27    4   27 1
    28    9   28 1
    29    9   29 1
    30    9   30 1
    31   10   31 1
    32   10   32 1
    33   10   33 1
    34   11   34 1
    35   11   35 1
    36   12   36 1
    37   12   37 1
    38   13   38 1
    39   14   39 1
    40   15   40 1
    41   16   41 1
    42   16   42 1
    43   17   43 1
    44   18   44 1
    45   21   45 1
@<TRIPOS>MOLECULE
LIGAND
   45    45     0     0     0
SMALL
NO_CHARGES

@<TRIPOS>ATOM
      1 C1         -1.7508   -1.5308    8.2465 C.ar      1 <0>         0.0000
      2 C2         -1.4530   -1.2202    6.9197 C.ar      1 <0>         0.0000
      3 C3         -0.8322   -1.2379    9.2545 C.ar      1 <0>         0.0000
      4 C4          0.6821   -0.3238    7.6089 C.ar      1 <0>         0.0000
      5 C5         -0.2366   -0.6167    6.6009 C.ar      1 <0>         0.0000
      6 C6          0.3843   -0.6344    8.9357 C.ar      1 <0>         0.0000
      7 C7          0.0801   -0.2867    5.1871 C.2       1 <0>         0.0000
      8 C8          1.9325   -1.0133    2.6768 C.2       1 <0>         0.0000
      9 C9         -3.9971   -1.8615    0.5747 C.3       1 <0>         0.0000
     10 C10        -3.2820   -4.2232    1.0762 C.3       1 <0>         0.0000
     11 C11         0.2728   -1.5333    0.1821 C.3       1 <0>         0.0000
     12 C12        -0.9662   -1.3605   -0.7034 C.3       1 <0>         0.0000
     13 C13         2.3649   -0.5352    1.2935 C.3       1 <0>         0.0000
     14 C14         1.1534   -0.2750    0.3710 C.3       1 <0>         0.0000
     15 C15        -2.8207   -2.8235    0.6883 C.3       1 <0>         0.0000
     16 N1          0.3761    0.8265    0.9508 N.3       1 <0>         0.0000
     17 N2          1.4238   -0.2520    4.8674 N.am      1 <0>         0.0000
     18 N3          1.7877    0.0290    3.5734 N.am      1 <0>         0.0000
     19 O1         -0.8375   -0.0833    4.3961 O.2       1 <0>         0.0000
     20 O2          1.7602   -2.2018    2.9407 O.2       1 <0>         0.0000
     21 O3          3.2186   -1.5159    0.7230 O.3       1 <0>         0.0000
     22 S1         -1.9323   -2.8885   -0.8842 S.3       1 <0>         0.0000
     23 Cl1         1.5171   -0.2728   10.1801 Cl        1 <0>         0.0000
     24 H1         -2.6981   -2.0004    8.4946 H         1 <0>         0.0000
     25 H2         -2.1768   -1.4534    6.1430 H         1 <0>         0.0000
     26 H3         -1.0781   -1.4858   10.2839 H         1 <0>         0.0000
     27 H4          1.6301    0.1476    7.3573 H         1 <0>         0.0000
     28 H5         -4.7074   -2.2163   -0.1804 H         1 <0>         0.0000
     29 H6         -4.5413   -1.7835    1.5226 H         1 <0>         0.0000
     30 H7         -3.6763   -0.8564    0.2780 H         1 <0>         0.0000
     31 H8         -3.9813   -4.6143    0.3288 H         1 <0>         0.0000
     32 H9         -3.8039   -4.2184    2.0397 H         1 <0>         0.0000
     33 H10        -2.4439   -4.9263    1.1424 H         1 <0>         0.0000
     34 H11         0.8786   -2.3375   -0.2566 H         1 <0>         0.0000
     35 H12        -0.0491   -1.9048    1.1634 H         1 <0>         0.0000
     36 H13        -0.6485   -1.0529   -1.7052 H         1 <0>         0.0000
     37 H14        -1.6218   -0.5733   -0.3201 H         1 <0>         0.0000
     38 H15         2.9484    0.3859    1.4229 H         1 <0>         0.0000
     39 H16         1.5222    0.0640   -0.6025 H         1 <0>         0.0000
     40 H17        -2.1237   -2.4514    1.4468 H         1 <0>         0.0000
     41 H18        -0.3732    1.0655    0.3105 H         1 <0>         0.0000
     42 H19         0.9747    1.6420    1.0220 H         1 <0>         0.0000
     43 H20         2.1281   -0.4306    5.5750 H         1 <0>         0.0000
     44 H21         1.9478    0.9869    3.2798 H         1 <0>         0.0000
     45 H22         2.7041   -2.3378    0.6655 H         1 <0>         0.0000
@<TRIPOS>BOND
     1    1    2 ar
     2    1    3 ar
     3    2    5 ar
     4    3    6 ar
     5    4    5 ar
     6    4    6 ar
     7    5    7 1
     8    6   23 1
     9    7   17 am
    10    7   19 2
    11    8   13 1
    12    8   18 am
    13    8   20 2
    14    9   15 1
    15   10   15 1
    16   11   12 1
    17   11   14 1
    18   12   22 1
    19   13   14 1
    20   13   21 1
    21   14   16 1
    22   15   22 1
    23   17   18 1
    24    1   24 1
    25    2   25 1
    26    3   26 1
    27    4   27 1
    28    9   28 1
    29    9   29 1
    30    9   30 1
    31   10   31 1
    32   10   32 1
    33   10   33 1
    34   11   34 1
    35   11   35 1
    36   12   36 1
    37   12   37 1
    38   13   38 1
    39   14   39 1
    40   15   40 1
    41   16   41 1
    42   16   42 1
    43   17   43 1
    44   18   44 1
    45   21   45 1
@<TRIPOS>MOLECULE
LIGAND
   45    45     0     0     0
SMALL
NO_CHARGES

@<TRIPOS>ATOM
      1 C1          3.3047   -0.8664    9.7081 C.ar      1 <0>         0.0000
      2 C2          3.6057   -0.4258    8.4194 C.ar      1 <0>         0.0000
      3 C3          2.1622   -1.6344    9.9335 C.ar      1 <0>         0.0000
      4 C4          1.6219   -1.5209    7.5815 C.ar      1 <0>         0.0000
      5 C5          2.7643   -0.7530    7.3561 C.ar      1 <0>         0.0000
      6 C6          1.3208   -1.9616    8.8702 C.ar      1 <0>         0.0000
      7 C7          3.0854   -0.2826    5.9837 C.2       1 <0>         0.0000
      8 C8          1.9325   -1.0133    2.6768 C.2       1 <0>         0.0000
      9 C9         -2.4695    4.5098    0.4722 C.3       1 <0>         0.0000
     10 C10        -0.2177    4.7761   -0.6229 C.3       1 <0>         0.0000
     11 C11         0.2195    0.8307    0.9188 C.3       1 <0>         0.0000
     12 C12         0.8590    2.2074    1.1305 C.3       1 <0>         0.0000
     13 C13         2.3649   -0.5352    1.2935 C.3       1 <0>         0.0000
     14 C14         1.1534   -0.2750    0.3710 C.3       1 <0>         0.0000
     15 C15        -1.1189    3.8600    0.1963 C.3       1 <0>         0.0000
     16 N1          1.6681    0.0834   -0.9557 N.3       1 <0>         0.0000
     17 N2          2.6023   -1.0670    4.9540 N.am      1 <0>         0.0000
     18 N3          2.8469   -0.6810    3.6590 N.am      1 <0>         0.0000
     19 O1          3.7293    0.7533    5.8374 O.2       1 <0>         0.0000
     20 O2          0.8915   -1.6405    2.8632 O.2       1 <0>         0.0000
     21 O3          3.2186   -1.5159    0.7230 O.3       1 <0>         0.0000
     22 S1         -0.3102    3.4478    1.7590 S.3       1 <0>         0.0000
     23 Cl1        -0.0884   -2.9097    9.1490 Cl        1 <0>         0.0000
     24 H1          3.9601   -0.6118   10.5358 H         1 <0>         0.0000
     25 H2          4.4987    0.1721    8.2563 H         1 <0>         0.0000
     26 H3          1.9405   -1.9706   10.9431 H         1 <0>         0.0000
     27 H4          0.9676   -1.7751    6.7500 H         1 <0>         0.0000
     28 H5         -2.3352    5.4486    1.0211 H         1 <0>         0.0000
     29 H6         -2.9944    4.7495   -0.4593 H         1 <0>         0.0000
     30 H7         -3.1176    3.8651    1.0767 H         1 <0>         0.0000
     31 H8         -0.0488    5.7190   -0.0908 H         1 <0>         0.0000
     32 H9         -0.6728    5.0239   -1.5883 H         1 <0>         0.0000
     33 H10         0.7629    4.3240   -0.8105 H         1 <0>         0.0000
     34 H11        -0.6259    0.9652    0.2307 H         1 <0>         0.0000
     35 H12        -0.2197    0.5004    1.8688 H         1 <0>         0.0000
     36 H13         1.2423    2.5738    0.1722 H         1 <0>         0.0000
     37 H14         1.7108    2.1489    1.8142 H         1 <0>         0.0000
     38 H15         2.9484    0.3859    1.4229 H         1 <0>         0.0000
     39 H16         0.5915   -1.2082    0.2610 H         1 <0>         0.0000
     40 H17        -1.2750    2.9249   -0.3521 H         1 <0>         0.0000
     41 H18         0.8845    0.1717   -1.5934 H         1 <0>         0.0000
     42 H19         2.2416   -0.6802   -1.2969 H         1 <0>         0.0000
     43 H20         2.0769   -1.9119    5.1509 H         1 <0>         0.0000
     44 H21         3.6858   -0.1599    3.4266 H         1 <0>         0.0000
     45 H22         2.7041   -2.3378    0.6655 H         1 <0>         0.0000
@<TRIPOS>BOND
     1    1    2 ar
     2    1    3 ar
     3    2    5 ar
     4    3    6 ar
     5    4    5 ar
     6    4    6 ar
     7    5    7 1
     8    6   23 1
     9    7   17 am
    10    7   19 2
    11    8   13 1
    12    8   18 am
    13    8   20 2
    14    9   15 1
    15   10   15 1
    16   11   12 1
    17   11   14 1
    18   12   22 1
    19   13   14 1
    20   13   21 1
    21   14   16 1
    22   15   22 1
    23   17   18 1
    24    1   24 1
    25    2   25 1
    26    3   26 1
    27    4   27 1
    28    9   28 1
    29    9   29 1
    30    9   30 1
    31   10   31 1
    32   10   32 1
    33   10   33 1
    34   11   34 1
    35   11   35 1
    36   12   36 1
    37   12   37 1
    38   13   38 1
    39   14   39 1
    40   15   40 1
    41   16   41 1
    42   16   42 1
    43   17   43 1
    44   18   44 1
    45   21   45 1
@<TRIPOS>MOLECULE
LIGAND
   45    45     0     0     0
SMALL
NO_CHARGES

@<TRIPOS>ATOM
      1 C1         -2.1326   -2.6043    7.7561 C.ar      1 <0>         0.0000
      2 C2         -1.7551   -2.3302    6.4416 C.ar      1 <0>         0.0000
      3 C3         -1.6491   -1.8151    8.7997 C.ar      1 <0>         0.0000
      4 C4         -0.4104   -0.4776    7.2142 C.ar      1 <0>         0.0000
      5 C5         -0.8940   -1.2668    6.1707 C.ar      1 <0>         0.0000
      6 C6         -0.7879   -0.7518    8.5287 C.ar      1 <0>         0.0000
      7 C7         -0.4919   -0.9759    4.7701 C.2       1 <0>         0.0000
      8 C8          1.9325   -1.0133    2.6768 C.2       1 <0>         0.0000
      9 C9          4.6590    3.8060   -3.6175 C.3       1 <0>         0.0000
     10 C10         2.7384    4.5764   -2.1830 C.3       1 <0>         0.0000
     11 C11         1.5761    0.1765   -1.0474 C.3       1 <0>         0.0000
     12 C12         2.3784    1.4800   -1.1273 C.3       1 <0>         0.0000
     13 C13         2.3649   -0.5352    1.2935 C.3       1 <0>         0.0000
     14 C14         1.1534   -0.2750    0.3710 C.3       1 <0>         0.0000
     15 C15         3.7349    3.4566   -2.4572 C.3       1 <0>         0.0000
     16 N1          0.3597   -1.5080    0.3138 N.3       1 <0>         0.0000
     17 N2          0.7320   -0.3536    4.6161 N.am      1 <0>         0.0000
     18 N3          1.1743   -0.0714    3.3469 N.am      1 <0>         0.0000
     19 O1         -1.2351   -1.3059    3.8493 O.2       1 <0>         0.0000
     20 O2          2.2555   -2.1109    3.1269 O.2       1 <0>         0.0000
     21 O3          3.2186   -1.5159    0.7230 O.3       1 <0>         0.0000
     22 S1          2.8465    1.9264   -2.8249 S.3       1 <0>         0.0000
     23 Cl1        -0.1920    0.2220    9.8169 Cl        1 <0>         0.0000
     24 H1         -2.8034   -3.4321    7.9668 H         1 <0>         0.0000
     25 H2         -2.1385   -2.9523    5.6369 H         1 <0>         0.0000
     26 H3         -1.9519   -2.0407    9.8189 H         1 <0>         0.0000
     27 H4          0.2608    0.3516    6.9998 H         1 <0>         0.0000
     28 H5          4.0760    3.9846   -4.5280 H         1 <0>         0.0000
     29 H6          5.2297    4.7186   -3.4120 H         1 <0>         0.0000
     30 H7          5.3674    2.9982   -3.8338 H         1 <0>         0.0000
     31 H8          2.1258    4.7669   -3.0714 H         1 <0>         0.0000
     32 H9          3.2495    5.5128   -1.9328 H         1 <0>         0.0000
     33 H10         2.0576    4.3258   -1.3615 H         1 <0>         0.0000
     34 H11         2.1843   -0.6108   -1.5125 H         1 <0>         0.0000
     35 H12         0.6847    0.2765   -1.6798 H         1 <0>         0.0000
     36 H13         3.3029    1.3655   -0.5514 H         1 <0>         0.0000
     37 H14         1.8267    2.3139   -0.6838 H         1 <0>         0.0000
     38 H15         2.9484    0.3859    1.4229 H         1 <0>         0.0000
     39 H16         0.5249    0.4957    0.8291 H         1 <0>         0.0000
     40 H17         4.3362    3.2822   -1.5586 H         1 <0>         0.0000
     41 H18        -0.4842   -1.3249   -0.2178 H         1 <0>         0.0000
     42 H19         0.0690   -1.7492    1.2550 H         1 <0>         0.0000
     43 H20         1.2931   -0.1098    5.4249 H         1 <0>         0.0000
     44 H21         0.9480    0.8148    2.9078 H         1 <0>         0.0000
     45 H22         2.7041   -2.3378    0.6655 H         1 <0>         0.0000
@<TRIPOS>BOND
     1    1    2 ar
     2    1    3 ar
     3    2    5 ar
     4    3    6 ar
     5    4    5 ar
     6    4    6 ar
     7    5    7 1
     8    6   23 1
     9    7   17 am
    10    7   19 2
    11    8   13 1
    12    8   18 am
    13    8   20 2
    14    9   15 1
    15   10   15 1
    16   11   12 1
    17   11   14 1
    18   12   22 1
    19   13   14 1
    20   13   21 1
    21   14   16 1
    22   15   22 1
    23   17   18 1
    24    1   24 1
    25    2   25 1
    26    3   26 1
    27    4   27 1
    28    9   28 1
    29    9   29 1
    30    9   30 1
    31   10   31 1
    32   10   32 1
    33   10   33 1
    34   11   34 1
    35   11   35 1
    36   12   36 1
    37   12   37 1
    38   13   38 1
    39   14   39 1
    40   15   40 1
    41   16   41 1
    42   16   42 1
    43   17   43 1
    44   18   44 1
    45   21   45 1
@<TRIPOS>MOLECULE
LIGAND
   45    45     0     0     0
SMALL
NO_CHARGES

@<TRIPOS>ATOM
      1 C1         -0.4443   -1.6789    8.4406 C.ar      1 <0>         0.0000
      2 C2          0.0752   -1.3786    7.1814 C.ar      1 <0>         0.0000
      3 C3         -0.0644   -0.9236    9.5500 C.ar      1 <0>         0.0000
      4 C4          1.3546    0.4323    8.1411 C.ar      1 <0>         0.0000
      5 C5          0.9746   -0.3231    7.0316 C.ar      1 <0>         0.0000
      6 C6          0.8350    0.1320    9.4003 C.ar      1 <0>         0.0000
      7 C7          1.5280   -0.0043    5.6900 C.2       1 <0>         0.0000
      8 C8          1.9325   -1.0133    2.6768 C.2       1 <0>         0.0000
      9 C9          5.1418    3.1300   -1.9709 C.3       1 <0>         0.0000
     10 C10         3.7665    4.3432   -3.6963 C.3       1 <0>         0.0000
     11 C11         1.5761    0.1765   -1.0474 C.3       1 <0>         0.0000
     12 C12         2.3784    1.4800   -1.1273 C.3       1 <0>         0.0000
     13 C13         2.3649   -0.5352    1.2935 C.3       1 <0>         0.0000
     14 C14         1.1534   -0.2750    0.3710 C.3       1 <0>         0.0000
     15 C15         3.7349    3.4566   -2.4572 C.3       1 <0>         0.0000
     16 N1          0.3597   -1.5080    0.3138 N.3       1 <0>         0.0000
     17 N2          0.7320   -0.3536    4.6161 N.am      1 <0>         0.0000
     18 N3          1.1743   -0.0714    3.3469 N.am      1 <0>         0.0000
     19 O1          2.6215    0.5492    5.6056 O.2       1 <0>         0.0000
     20 O2          2.2555   -2.1109    3.1269 O.2       1 <0>         0.0000
     21 O3          3.2186   -1.5159    0.7230 O.3       1 <0>         0.0000
     22 S1          2.8465    1.9264   -2.8249 S.3       1 <0>         0.0000
     23 Cl1         1.3030    1.0639   10.7696 Cl        1 <0>         0.0000
     24 H1         -1.1448   -2.5006    8.5569 H         1 <0>         0.0000
     25 H2         -0.2283   -1.9745    6.3244 H         1 <0>         0.0000
     26 H3         -0.4775   -1.1693   10.5250 H         1 <0>         0.0000
     27 H4          2.0560    1.2555    8.0212 H         1 <0>         0.0000
     28 H5          5.7052    2.6127   -2.7555 H         1 <0>         0.0000
     29 H6          5.6972    4.0398   -1.7170 H         1 <0>         0.0000
     30 H7          5.1290    2.4774   -1.0905 H         1 <0>         0.0000
     31 H8          4.3088    3.8446   -4.5075 H         1 <0>         0.0000
     32 H9          4.2791    5.2906   -3.4959 H         1 <0>         0.0000
     33 H10         2.7588    4.5681   -4.0639 H         1 <0>         0.0000
     34 H11         2.1843   -0.6108   -1.5125 H         1 <0>         0.0000
     35 H12         0.6847    0.2765   -1.6798 H         1 <0>         0.0000
     36 H13         3.3029    1.3655   -0.5514 H         1 <0>         0.0000
     37 H14         1.8267    2.3139   -0.6838 H         1 <0>         0.0000
     38 H15         2.9484    0.3859    1.4229 H         1 <0>         0.0000
     39 H16         0.5249    0.4957    0.8291 H         1 <0>         0.0000
     40 H17         3.1895    3.9723   -1.6597 H         1 <0>         0.0000
     41 H18        -0.4842   -1.3249   -0.2178 H         1 <0>         0.0000
     42 H19         0.0690   -1.7492    1.2550 H         1 <0>         0.0000
     43 H20        -0.1619   -0.8097    4.7623 H         1 <0>         0.0000
     44 H21         0.9480    0.8148    2.9078 H         1 <0>         0.0000
     45 H22         2.7041   -2.3378    0.6655 H         1 <0>         0.0000
@<TRIPOS>BOND
     1    1    2 ar
     2    1    3 ar
     3    2    5 ar
     4    3    6 ar
     5    4    5 ar
     6    4    6 ar
     7    5    7 1
     8    6   23 1
     9    7   17 am
    10    7   19 2
    11    8   13 1
    12    8   18 am
    13    8   20 2
    14    9   15 1
    15   10   15 1
    16   11   12 1
    17   11   14 1
    18   12   22 1
    19   13   14 1
    20   13   21 1
    21   14   16 1
    22   15   22 1
    23   17   18 1
    24    1   24 1
    25    2   25 1
    26    3   26 1
    27    4   27 1
    28    9   28 1
    29    9   29 1
    30    9   30 1
    31   10   31 1
    32   10   32 1
    33   10   33 1
    34   11   34 1
    35   11   35 1
    36   12   36 1
    37   12   37 1
    38   13   38 1
    39   14   39 1
    40   15   40 1
    41   16   41 1
    42   16   42 1
    43   17   43 1
    44   18   44 1
    45   21   45 1
@<TRIPOS>MOLECULE
LIGAND
   45    45     0     0     0
SMALL
NO_CHARGES

@<TRIPOS>ATOM
      1 C1         -0.8688   -1.7203    8.2676 C.ar      1 <0>         0.0000
      2 C2         -0.4721   -1.3756    6.9756 C.ar      1 <0>         0.0000
      3 C3         -1.6746   -0.8524    9.0047 C.ar      1 <0>         0.0000
      4 C4         -1.6869    0.7048    7.1576 C.ar      1 <0>         0.0000
      5 C5         -0.8811   -0.1631    6.4206 C.ar      1 <0>         0.0000
      6 C6         -2.0836    0.3601    8.4497 C.ar      1 <0>         0.0000
      7 C7         -0.4576    0.2036    5.0443 C.2       1 <0>         0.0000
      8 C8          1.9325   -1.0133    2.6768 C.2       1 <0>         0.0000
      9 C9          1.1606    4.0721   -2.8209 C.3       1 <0>         0.0000
     10 C10         1.1711    2.6068   -4.8686 C.3       1 <0>         0.0000
     11 C11         1.5761    0.1765   -1.0474 C.3       1 <0>         0.0000
     12 C12         2.3784    1.4800   -1.1273 C.3       1 <0>         0.0000
     13 C13         2.3649   -0.5352    1.2935 C.3       1 <0>         0.0000
     14 C14         1.1534   -0.2750    0.3710 C.3       1 <0>         0.0000
     15 C15         1.2741    2.6470   -3.3486 C.3       1 <0>         0.0000
     16 N1          0.3597   -1.5080    0.3138 N.3       1 <0>         0.0000
     17 N2          0.7320   -0.3536    4.6161 N.am      1 <0>         0.0000
     18 N3          1.1743   -0.0714    3.3469 N.am      1 <0>         0.0000
     19 O1         -1.1696    0.9461    4.3728 O.2       1 <0>         0.0000
     20 O2          2.2555   -2.1109    3.1269 O.2       1 <0>         0.0000
     21 O3          3.2186   -1.5159    0.7230 O.3       1 <0>         0.0000
     22 S1          2.8465    1.9264   -2.8249 S.3       1 <0>         0.0000
     23 Cl1        -3.0783    1.4303    9.3596 Cl        1 <0>         0.0000
     24 H1         -0.5505   -2.6646    8.6994 H         1 <0>         0.0000
     25 H2          0.1559   -2.0601    6.4111 H         1 <0>         0.0000
     26 H3         -1.9758   -1.1345   10.0103 H         1 <0>         0.0000
     27 H4         -2.0049    1.6499    6.7219 H         1 <0>         0.0000
     28 H5          1.9558    4.6980   -3.2410 H         1 <0>         0.0000
     29 H6          0.2046    4.5270   -3.1034 H         1 <0>         0.0000
     30 H7          1.2520    4.1126   -1.7295 H         1 <0>         0.0000
     31 H8          1.9665    3.2101   -5.3202 H         1 <0>         0.0000
     32 H9          0.2154    3.0160   -5.2145 H         1 <0>         0.0000
     33 H10         1.2700    1.5872   -5.2582 H         1 <0>         0.0000
     34 H11         2.1843   -0.6108   -1.5125 H         1 <0>         0.0000
     35 H12         0.6847    0.2765   -1.6798 H         1 <0>         0.0000
     36 H13         3.3029    1.3655   -0.5514 H         1 <0>         0.0000
     37 H14         1.8267    2.3139   -0.6838 H         1 <0>         0.0000
     38 H15         2.9484    0.3859    1.4229 H         1 <0>         0.0000
     39 H16         0.5249    0.4957    0.8291 H         1 <0>         0.0000
     40 H17         0.4716    2.0389   -2.9175 H         1 <0>         0.0000
     41 H18        -0.4842   -1.3249   -0.2178 H         1 <0>         0.0000
     42 H19         0.0690   -1.7492    1.2550 H         1 <0>         0.0000
     43 H20         1.2684   -0.9594    5.2274 H         1 <0>         0.0000
     44 H21         0.9480    0.8148    2.9078 H         1 <0>         0.0000
     45 H22         2.7041   -2.3378    0.6655 H         1 <0>         0.0000
@<TRIPOS>BOND
     1    1    2 ar
     2    1    3 ar
     3    2    5 ar
     4    3    6 ar
     5    4    5 ar
     6    4    6 ar
     7    5    7 1
     8    6   23 1
     9    7   17 am
    10    7   19 2
    11    8   13 1
    12    8   18 am
    13    8   20 2
    14    9   15 1
    15   10   15 1
    16   11   12 1
    17   11   14 1
    18   12   22 1
    19   13   14 1
    20   13   21 1
    21   14   16 1
    22   15   22 1
    23   17   18 1
    24    1   24 1
    25    2   25 1
    26    3   26 1
    27    4   27 1
    28    9   28 1
    29    9   29 1
    30    9   30 1
    31   10   31 1
    32   10   32 1
    33   10   33 1
    34   11   34 1
    35   11   35 1
    36   12   36 1
    37   12   37 1
    38   13   38 1
    39   14   39 1
    40   15   40 1
    41   16   41 1
    42   16   42 1
    43   17   43 1
    44   18   44 1
    45   21   45 1
@<TRIPOS>MOLECULE
LIGAND
   45    45     0     0     0
SMALL
NO_CHARGES

@<TRIPOS>ATOM
      1 C1         -2.0859    0.3620    8.4478 C.ar      1 <0>         0.0000
      2 C2         -1.6873    0.7057    7.1561 C.ar      1 <0>         0.0000
      3 C3         -1.6782   -0.8505    9.0041 C.ar      1 <0>         0.0000
      4 C4         -0.4734   -1.3755    6.9768 C.ar      1 <0>         0.0000
      5 C5         -0.8811   -0.1631    6.4206 C.ar      1 <0>         0.0000
      6 C6         -0.8720   -1.7192    8.2686 C.ar      1 <0>         0.0000
      7 C7         -0.4576    0.2036    5.0443 C.2       1 <0>         0.0000
      8 C8          1.9325   -1.0133    2.6768 C.2       1 <0>         0.0000
      9 C9          5.1418    3.1300   -1.9709 C.3       1 <0>         0.0000
     10 C10         3.7665    4.3432   -3.6963 C.3       1 <0>         0.0000
     11 C11         1.5761    0.1765   -1.0474 C.3       1 <0>         0.0000
     12 C12         2.3784    1.4800   -1.1273 C.3       1 <0>         0.0000
     13 C13         2.3649   -0.5352    1.2935 C.3       1 <0>         0.0000
     14 C14         1.1534   -0.2750    0.3710 C.3       1 <0>         0.0000
     15 C15         3.7349    3.4566   -2.4572 C.3       1 <0>         0.0000
     16 N1          0.3597   -1.5080    0.3138 N.3       1 <0>         0.0000
     17 N2          0.7320   -0.3536    4.6161 N.am      1 <0>         0.0000
     18 N3          1.1743   -0.0714    3.3469 N.am      1 <0>         0.0000
     19 O1         -1.1696    0.9461    4.3728 O.2       1 <0>         0.0000
     20 O2          2.2555   -2.1109    3.1269 O.2       1 <0>         0.0000
     21 O3          3.2186   -1.5159    0.7230 O.3       1 <0>         0.0000
     22 S1          2.8465    1.9264   -2.8249 S.3       1 <0>         0.0000
     23 Cl1        -0.3688   -3.2149    8.9559 Cl        1 <0>         0.0000
     24 H1         -2.7133    1.0387    9.0204 H         1 <0>         0.0000
     25 H2         -2.0115    1.6532    6.7333 H         1 <0>         0.0000
     26 H3         -1.9966   -1.1048   10.0118 H         1 <0>         0.0000
     27 H4          0.1559   -2.0511    6.4010 H         1 <0>         0.0000
     28 H5          5.7052    2.6127   -2.7555 H         1 <0>         0.0000
     29 H6          5.6972    4.0398   -1.7170 H         1 <0>         0.0000
     30 H7          5.1290    2.4774   -1.0905 H         1 <0>         0.0000
     31 H8          4.3088    3.8446   -4.5075 H         1 <0>         0.0000
     32 H9          4.2791    5.2906   -3.4959 H         1 <0>         0.0000
     33 H10         2.7588    4.5681   -4.0639 H         1 <0>         0.0000
     34 H11         2.1843   -0.6108   -1.5125 H         1 <0>         0.0000
     35 H12         0.6847    0.2765   -1.6798 H         1 <0>         0.0000
     36 H13         3.3029    1.3655   -0.5514 H         1 <0>         0.0000
     37 H14         1.8267    2.3139   -0.6838 H         1 <0>         0.0000
     38 H15         2.9484    0.3859    1.4229 H         1 <0>         0.0000
     39 H16         0.5249    0.4957    0.8291 H         1 <0>         0.0000
     40 H17         3.1895    3.9723   -1.6597 H         1 <0>         0.0000
     41 H18        -0.4842   -1.3249   -0.2178 H         1 <0>         0.0000
     42 H19         0.0690   -1.7492    1.2550 H         1 <0>         0.0000
     43 H20         1.2684   -0.9594    5.2274 H         1 <0>         0.0000
     44 H21         0.9480    0.8148    2.9078 H         1 <0>         0.0000
     45 H22         2.7041   -2.3378    0.6655 H         1 <0>         0.0000
@<TRIPOS>BOND
     1    1    2 ar
     2    1    3 ar
     3    2    5 ar
     4    3    6 ar
     5    4    5 ar
     6    4    6 ar
     7    5    7 1
     8    6   23 1
     9    7   17 am
    10    7   19 2
    11    8   13 1
    12    8   18 am
    13    8   20 2
    14    9   15 1
    15   10   15 1
    16   11   12 1
    17   11   14 1
    18   12   22 1
    19   13   14 1
    20   13   21 1
    21   14   16 1
    22   15   22 1
    23   17   18 1
    24    1   24 1
    25    2   25 1
    26    3   26 1
    27    4   27 1
    28    9   28 1
    29    9   29 1
    30    9   30 1
    31   10   31 1
    32   10   32 1
    33   10   33 1
    34   11   34 1
    35   11   35 1
    36   12   36 1
    37   12   37 1
    38   13   38 1
    39   14   39 1
    40   15   40 1
    41   16   41 1
    42   16   42 1
    43   17   43 1
    44   18   44 1
    45   21   45 1
@<TRIPOS>MOLECULE
LIGAND
   45    45     0     0     0
SMALL
NO_CHARGES

@<TRIPOS>ATOM
      1 C1         -2.3305   -2.8430    7.5352 C.ar      1 <0>         0.0000
      2 C2         -1.8950   -2.2446    6.3529 C.ar      1 <0>         0.0000
      3 C3         -1.8838   -4.1195    7.8766 C.ar      1 <0>         0.0000
      4 C4         -0.5660   -4.1993    5.8532 C.ar      1 <0>         0.0000
      5 C5         -1.0128   -2.9227    5.5119 C.ar      1 <0>         0.0000
      6 C6         -1.0015   -4.7977    7.0355 C.ar      1 <0>         0.0000
      7 C7         -0.5498   -2.2848    4.2523 C.2       1 <0>         0.0000
      8 C8          1.9325   -1.0133    2.6768 C.2       1 <0>         0.0000
      9 C9         -4.5752    3.1779    0.0331 C.3       1 <0>         0.0000
     10 C10        -2.7668    3.3107   -1.7140 C.3       1 <0>         0.0000
     11 C11         0.2195    0.8307    0.9188 C.3       1 <0>         0.0000
     12 C12        -1.0001    1.1700    0.0549 C.3       1 <0>         0.0000
     13 C13         2.3649   -0.5352    1.2935 C.3       1 <0>         0.0000
     14 C14         1.1534   -0.2750    0.3710 C.3       1 <0>         0.0000
     15 C15        -3.3066    2.5373   -0.5169 C.3       1 <0>         0.0000
     16 N1          1.6681    0.0834   -0.9557 N.3       1 <0>         0.0000
     17 N2          0.6851   -2.6985    3.7909 N.am      1 <0>         0.0000
     18 N3          1.1665   -2.1628    2.6216 N.am      1 <0>         0.0000
     19 O1         -1.2703   -1.4609    3.6944 O.2       1 <0>         0.0000
     20 O2          2.2299   -0.4108    3.7066 O.2       1 <0>         0.0000
     21 O3          3.2186   -1.5159    0.7230 O.3       1 <0>         0.0000
     22 S1         -2.0492    2.4644    0.7791 S.3       1 <0>         0.0000
     23 Cl1        -0.4502   -6.3727    7.4576 Cl        1 <0>         0.0000
     24 H1         -3.0172   -2.3146    8.1901 H         1 <0>         0.0000
     25 H2         -2.2503   -1.2495    6.0977 H         1 <0>         0.0000
     26 H3         -2.2317   -4.5731    8.8010 H         1 <0>         0.0000
     27 H4          0.1227   -4.7258    5.1954 H         1 <0>         0.0000
     28 H5         -4.3764    4.2092    0.3452 H         1 <0>         0.0000
     29 H6         -5.3650    3.2137   -0.7256 H         1 <0>         0.0000
     30 H7         -4.9604    2.6385    0.9059 H         1 <0>         0.0000
     31 H8         -2.5401    4.3441   -1.4288 H         1 <0>         0.0000
     32 H9         -3.5004    3.3505   -2.5268 H         1 <0>         0.0000
     33 H10        -1.8438    2.8672   -2.1048 H         1 <0>         0.0000
     34 H11        -0.1531    0.5335    1.9082 H         1 <0>         0.0000
     35 H12         0.7975    1.7493    1.0822 H         1 <0>         0.0000
     36 H13        -1.6176    0.2727   -0.0585 H         1 <0>         0.0000
     37 H14        -0.7009    1.4813   -0.9501 H         1 <0>         0.0000
     38 H15         2.9484    0.3859    1.4229 H         1 <0>         0.0000
     39 H16         0.5915   -1.2082    0.2610 H         1 <0>         0.0000
     40 H17        -3.5264    1.5088   -0.8227 H         1 <0>         0.0000
     41 H18         0.8845    0.1717   -1.5934 H         1 <0>         0.0000
     42 H19         2.2416   -0.6802   -1.2969 H         1 <0>         0.0000
     43 H20         1.2257   -3.3847    4.3060 H         1 <0>         0.0000
     44 H21         0.9630   -2.6038    1.7309 H         1 <0>         0.0000
     45 H22         2.7041   -2.3378    0.6655 H         1 <0>         0.0000
@<TRIPOS>BOND
     1    1    2 ar
     2    1    3 ar
     3    2    5 ar
     4    3    6 ar
     5    4    5 ar
     6    4    6 ar
     7    5    7 1
     8    6   23 1
     9    7   17 am
    10    7   19 2
    11    8   13 1
    12    8   18 am
    13    8   20 2
    14    9   15 1
    15   10   15 1
    16   11   12 1
    17   11   14 1
    18   12   22 1
    19   13   14 1
    20   13   21 1
    21   14   16 1
    22   15   22 1
    23   17   18 1
    24    1   24 1
    25    2   25 1
    26    3   26 1
    27    4   27 1
    28    9   28 1
    29    9   29 1
    30    9   30 1
    31   10   31 1
    32   10   32 1
    33   10   33 1
    34   11   34 1
    35   11   35 1
    36   12   36 1
    37   12   37 1
    38   13   38 1
    39   14   39 1
    40   15   40 1
    41   16   41 1
    42   16   42 1
    43   17   43 1
    44   18   44 1
    45   21   45 1
@<TRIPOS>MOLECULE
LIGAND
   45    45     0     0     0
SMALL
NO_CHARGES

@<TRIPOS>ATOM
      1 C1         -1.7508   -1.5308    8.2465 C.ar      1 <0>         0.0000
      2 C2         -1.4530   -1.2202    6.9197 C.ar      1 <0>         0.0000
      3 C3         -0.8322   -1.2379    9.2545 C.ar      1 <0>         0.0000
      4 C4          0.6821   -0.3238    7.6089 C.ar      1 <0>         0.0000
      5 C5         -0.2366   -0.6167    6.6009 C.ar      1 <0>         0.0000
      6 C6          0.3843   -0.6344    8.9357 C.ar      1 <0>         0.0000
      7 C7          0.0801   -0.2867    5.1871 C.2       1 <0>         0.0000
      8 C8          1.9325   -1.0133    2.6768 C.2       1 <0>         0.0000
      9 C9         -1.3321   -3.2415   -3.4235 C.3       1 <0>         0.0000
     10 C10         0.8182   -2.2457   -4.2751 C.3       1 <0>         0.0000
     11 C11         0.2728   -1.5333    0.1821 C.3       1 <0>         0.0000
     12 C12        -0.9662   -1.3605   -0.7034 C.3       1 <0>         0.0000
     13 C13         2.3649   -0.5352    1.2935 C.3       1 <0>         0.0000
     14 C14         1.1534   -0.2750    0.3710 C.3       1 <0>         0.0000
     15 C15        -0.0858   -2.4416   -3.0639 C.3       1 <0>         0.0000
     16 N1          0.3761    0.8265    0.9508 N.3       1 <0>         0.0000
     17 N2          1.4238   -0.2520    4.8674 N.am      1 <0>         0.0000
     18 N3          1.7877    0.0290    3.5734 N.am      1 <0>         0.0000
     19 O1         -0.8375   -0.0833    4.3961 O.2       1 <0>         0.0000
     20 O2          1.7602   -2.2018    2.9407 O.2       1 <0>         0.0000
     21 O3          3.2186   -1.5159    0.7230 O.3       1 <0>         0.0000
     22 S1         -0.5659   -0.8328   -2.3950 S.3       1 <0>         0.0000
     23 Cl1         1.5171   -0.2728   10.1801 Cl        1 <0>         0.0000
     24 H1         -2.6981   -2.0004    8.4946 H         1 <0>         0.0000
     25 H2         -2.1768   -1.4534    6.1430 H         1 <0>         0.0000
     26 H3         -1.0781   -1.4858   10.2839 H         1 <0>         0.0000
     27 H4          1.6301    0.1476    7.3573 H         1 <0>         0.0000
     28 H5         -1.9025   -2.7267   -4.2047 H         1 <0>         0.0000
     29 H6         -1.0716   -4.2331   -3.8102 H         1 <0>         0.0000
     30 H7         -1.9972   -3.3715   -2.5621 H         1 <0>         0.0000
     31 H8          0.2808   -1.7156   -5.0694 H         1 <0>         0.0000
     32 H9          1.1454   -3.2064   -4.6881 H         1 <0>         0.0000
     33 H10         1.7084   -1.6554   -4.0296 H         1 <0>         0.0000
     34 H11         0.8786   -2.3375   -0.2566 H         1 <0>         0.0000
     35 H12        -0.0491   -1.9048    1.1634 H         1 <0>         0.0000
     36 H13        -1.6137   -0.5937   -0.2651 H         1 <0>         0.0000
     37 H14        -1.5515   -2.2833   -0.7522 H         1 <0>         0.0000
     38 H15         2.9484    0.3859    1.4229 H         1 <0>         0.0000
     39 H16         1.5222    0.0640   -0.6025 H         1 <0>         0.0000
     40 H17         0.4693   -2.9722   -2.2830 H         1 <0>         0.0000
     41 H18        -0.3732    1.0655    0.3105 H         1 <0>         0.0000
     42 H19         0.9747    1.6420    1.0220 H         1 <0>         0.0000
     43 H20         2.1281   -0.4306    5.5750 H         1 <0>         0.0000
     44 H21         1.9478    0.9869    3.2798 H         1 <0>         0.0000
     45 H22         2.7041   -2.3378    0.6655 H         1 <0>         0.0000
@<TRIPOS>BOND
     1    1    2 ar
     2    1    3 ar
     3    2    5 ar
     4    3    6 ar
     5    4    5 ar
     6    4    6 ar
     7    5    7 1
     8    6   23 1
     9    7   17 am
    10    7   19 2
    11    8   13 1
    12    8   18 am
    13    8   20 2
    14    9   15 1
    15   10   15 1
    16   11   12 1
    17   11   14 1
    18   12   22 1
    19   13   14 1
    20   13   21 1
    21   14   16 1
    22   15   22 1
    23   17   18 1
    24    1   24 1
    25    2   25 1
    26    3   26 1
    27    4   27 1
    28    9   28 1
    29    9   29 1
    30    9   30 1
    31   10   31 1
    32   10   32 1
    33   10   33 1
    34   11   34 1
    35   11   35 1
    36   12   36 1
    37   12   37 1
    38   13   38 1
    39   14   39 1
    40   15   40 1
    41   16   41 1
    42   16   42 1
    43   17   43 1
    44   18   44 1
    45   21   45 1
@<TRIPOS>MOLECULE
LIGAND
   45    45     0     0     0
SMALL
NO_CHARGES

@<TRIPOS>ATOM
      1 C1         -0.9264   -0.6930    8.4760 C.ar      1 <0>         0.0000
      2 C2         -0.4061   -0.3932    7.2170 C.ar      1 <0>         0.0000
      3 C3         -0.0659   -0.9225    9.5497 C.ar      1 <0>         0.0000
      4 C4          1.8351   -0.5526    8.1053 C.ar      1 <0>         0.0000
      5 C5          0.9746   -0.3231    7.0316 C.ar      1 <0>         0.0000
      6 C6          1.3148   -0.8524    9.3643 C.ar      1 <0>         0.0000
      7 C7          1.5280   -0.0043    5.6900 C.2       1 <0>         0.0000
      8 C8          1.9325   -1.0133    2.6768 C.2       1 <0>         0.0000
      9 C9          5.1418    3.1300   -1.9709 C.3       1 <0>         0.0000
     10 C10         3.7665    4.3432   -3.6963 C.3       1 <0>         0.0000
     11 C11         1.5761    0.1765   -1.0474 C.3       1 <0>         0.0000
     12 C12         2.3784    1.4800   -1.1273 C.3       1 <0>         0.0000
     13 C13         2.3649   -0.5352    1.2935 C.3       1 <0>         0.0000
     14 C14         1.1534   -0.2750    0.3710 C.3       1 <0>         0.0000
     15 C15         3.7349    3.4566   -2.4572 C.3       1 <0>         0.0000
     16 N1          0.3597   -1.5080    0.3138 N.3       1 <0>         0.0000
     17 N2          0.7320   -0.3536    4.6161 N.am      1 <0>         0.0000
     18 N3          1.1743   -0.0714    3.3469 N.am      1 <0>         0.0000
     19 O1          2.6215    0.5492    5.6056 O.2       1 <0>         0.0000
     20 O2          2.2555   -2.1109    3.1269 O.2       1 <0>         0.0000
     21 O3          3.2186   -1.5159    0.7230 O.3       1 <0>         0.0000
     22 S1          2.8465    1.9264   -2.8249 S.3       1 <0>         0.0000
     23 Cl1         2.3759   -1.1353   10.6896 Cl        1 <0>         0.0000
     24 H1         -2.0014   -0.7472    8.6202 H         1 <0>         0.0000
     25 H2         -1.0867   -0.2164    6.3881 H         1 <0>         0.0000
     26 H3         -0.4859   -1.1551   10.5249 H         1 <0>         0.0000
     27 H4          2.9117   -0.4967    7.9578 H         1 <0>         0.0000
     28 H5          5.7052    2.6127   -2.7555 H         1 <0>         0.0000
     29 H6          5.6972    4.0398   -1.7170 H         1 <0>         0.0000
     30 H7          5.1290    2.4774   -1.0905 H         1 <0>         0.0000
     31 H8          4.3088    3.8446   -4.5075 H         1 <0>         0.0000
     32 H9          4.2791    5.2906   -3.4959 H         1 <0>         0.0000
     33 H10         2.7588    4.5681   -4.0639 H         1 <0>         0.0000
     34 H11         2.1843   -0.6108   -1.5125 H         1 <0>         0.0000
     35 H12         0.6847    0.2765   -1.6798 H         1 <0>         0.0000
     36 H13         3.3029    1.3655   -0.5514 H         1 <0>         0.0000
     37 H14         1.8267    2.3139   -0.6838 H         1 <0>         0.0000
     38 H15         2.9484    0.3859    1.4229 H         1 <0>         0.0000
     39 H16         0.5249    0.4957    0.8291 H         1 <0>         0.0000
     40 H17         3.1895    3.9723   -1.6597 H         1 <0>         0.0000
     41 H18        -0.4842   -1.3249   -0.2178 H         1 <0>         0.0000
     42 H19         0.0690   -1.7492    1.2550 H         1 <0>         0.0000
     43 H20        -0.1619   -0.8097    4.7623 H         1 <0>         0.0000
     44 H21         0.9480    0.8148    2.9078 H         1 <0>         0.0000
     45 H22         2.7041   -2.3378    0.6655 H         1 <0>         0.0000
@<TRIPOS>BOND
     1    1    2 ar
     2    1    3 ar
     3    2    5 ar
     4    3    6 ar
     5    4    5 ar
     6    4    6 ar
     7    5    7 1
     8    6   23 1
     9    7   17 am
    10    7   19 2
    11    8   13 1
    12    8   18 am
    13    8   20 2
    14    9   15 1
    15   10   15 1
    16   11   12 1
    17   11   14 1
    18   12   22 1
    19   13   14 1
    20   13   21 1
    21   14   16 1
    22   15   22 1
    23   17   18 1
    24    1   24 1
    25    2   25 1
    26    3   26 1
    27    4   27 1
    28    9   28 1
    29    9   29 1
    30    9   30 1
    31   10   31 1
    32   10   32 1
    33   10   33 1
    34   11   34 1
    35   11   35 1
    36   12   36 1
    37   12   37 1
    38   13   38 1
    39   14   39 1
    40   15   40 1
    41   16   41 1
    42   16   42 1
    43   17   43 1
    44   18   44 1
    45   21   45 1
@<TRIPOS>MOLECULE
LIGAND
   45    45     0     0     0
SMALL
NO_CHARGES

@<TRIPOS>ATOM
      1 C1         -2.7350   -4.6966    6.5195 C.ar      1 <0>         0.0000
      2 C2         -2.3150   -4.1636    5.3009 C.ar      1 <0>         0.0000
      3 C3         -1.7964   -5.0251    7.4977 C.ar      1 <0>         0.0000
      4 C4         -0.0177   -4.2875    6.0385 C.ar      1 <0>         0.0000
      5 C5         -0.9563   -3.9590    5.0604 C.ar      1 <0>         0.0000
      6 C6         -0.4377   -4.8206    7.2572 C.ar      1 <0>         0.0000
      7 C7         -0.5097   -3.3917    3.7617 C.2       1 <0>         0.0000
      8 C8          1.9325   -1.0133    2.6768 C.2       1 <0>         0.0000
      9 C9         -3.5032    1.0894   -2.1358 C.3       1 <0>         0.0000
     10 C10        -4.8182   -0.2133   -0.4286 C.3       1 <0>         0.0000
     11 C11         0.2195    0.8307    0.9188 C.3       1 <0>         0.0000
     12 C12        -1.0001    1.1700    0.0549 C.3       1 <0>         0.0000
     13 C13         2.3649   -0.5352    1.2935 C.3       1 <0>         0.0000
     14 C14         1.1534   -0.2750    0.3710 C.3       1 <0>         0.0000
     15 C15        -3.5917    0.6563   -0.6773 C.3       1 <0>         0.0000
     16 N1          1.6681    0.0834   -0.9557 N.3       1 <0>         0.0000
     17 N2          0.6851   -2.6985    3.7909 N.am      1 <0>         0.0000
     18 N3          1.1665   -2.1628    2.6216 N.am      1 <0>         0.0000
     19 O1         -1.1937   -3.5743    2.7577 O.2       1 <0>         0.0000
     20 O2          2.2299   -0.4108    3.7066 O.2       1 <0>         0.0000
     21 O3          3.2186   -1.5159    0.7230 O.3       1 <0>         0.0000
     22 S1         -2.0977   -0.2515   -0.2193 S.3       1 <0>         0.0000
     23 Cl1         0.7199   -5.2257    8.4648 Cl        1 <0>         0.0000
     24 H1         -3.7929   -4.8555    6.7066 H         1 <0>         0.0000
     25 H2         -3.0558   -3.9116    4.5464 H         1 <0>         0.0000
     26 H3         -2.1385   -5.4397    8.4424 H         1 <0>         0.0000
     27 H4          1.0416   -4.1264    5.8483 H         1 <0>         0.0000
     28 H5         -3.4475    0.2126   -2.7905 H         1 <0>         0.0000
     29 H6         -4.3868    1.6640   -2.4354 H         1 <0>         0.0000
     30 H7         -2.6138    1.7003   -2.3277 H         1 <0>         0.0000
     31 H8         -4.7827   -1.1102   -1.0571 H         1 <0>         0.0000
     32 H9         -5.7425    0.3209   -0.6752 H         1 <0>         0.0000
     33 H10        -4.8798   -0.5446    0.6143 H         1 <0>         0.0000
     34 H11        -0.1531    0.5335    1.9082 H         1 <0>         0.0000
     35 H12         0.7975    1.7493    1.0822 H         1 <0>         0.0000
     36 H13        -0.6573    1.5138   -0.9268 H         1 <0>         0.0000
     37 H14        -1.5832    1.9849    0.4933 H         1 <0>         0.0000
     38 H15         2.9484    0.3859    1.4229 H         1 <0>         0.0000
     39 H16         0.5915   -1.2082    0.2610 H         1 <0>         0.0000
     40 H17        -3.6464    1.5459   -0.0407 H         1 <0>         0.0000
     41 H18         0.8845    0.1717   -1.5934 H         1 <0>         0.0000
     42 H19         2.2416   -0.6802   -1.2969 H         1 <0>         0.0000
     43 H20         1.1968   -2.5873    4.6594 H         1 <0>         0.0000
     44 H21         0.9630   -2.6038    1.7309 H         1 <0>         0.0000
     45 H22         2.7041   -2.3378    0.6655 H         1 <0>         0.0000
@<TRIPOS>BOND
     1    1    2 ar
     2    1    3 ar
     3    2    5 ar
     4    3    6 ar
     5    4    5 ar
     6    4    6 ar
     7    5    7 1
     8    6   23 1
     9    7   17 am
    10    7   19 2
    11    8   13 1
    12    8   18 am
    13    8   20 2
    14    9   15 1
    15   10   15 1
    16   11   12 1
    17   11   14 1
    18   12   22 1
    19   13   14 1
    20   13   21 1
    21   14   16 1
    22   15   22 1
    23   17   18 1
    24    1   24 1
    25    2   25 1
    26    3   26 1
    27    4   27 1
    28    9   28 1
    29    9   29 1
    30    9   30 1
    31   10   31 1
    32   10   32 1
    33   10   33 1
    34   11   34 1
    35   11   35 1
    36   12   36 1
    37   12   37 1
    38   13   38 1
    39   14   39 1
    40   15   40 1
    41   16   41 1
    42   16   42 1
    43   17   43 1
    44   18   44 1
    45   21   45 1
@<TRIPOS>MOLECULE
LIGAND
   45    45     0     0     0
SMALL
NO_CHARGES

@<TRIPOS>ATOM
      1 C1          0.6580    0.5677    9.4476 C.ar      1 <0>         0.0000
      2 C2          0.9745    0.9620    8.1477 C.ar      1 <0>         0.0000
      3 C3          1.0201   -0.7015    9.8991 C.ar      1 <0>         0.0000
      4 C4          2.0151   -1.1819    7.7506 C.ar      1 <0>         0.0000
      5 C5          1.6530    0.0872    7.2991 C.ar      1 <0>         0.0000
      6 C6          1.6986   -1.5763    9.0506 C.ar      1 <0>         0.0000
      7 C7          1.9892    0.5079    5.9143 C.2       1 <0>         0.0000
      8 C8          1.9325   -1.0133    2.6768 C.2       1 <0>         0.0000
      9 C9         -2.4695    4.5098    0.4722 C.3       1 <0>         0.0000
     10 C10        -0.2177    4.7761   -0.6229 C.3       1 <0>         0.0000
     11 C11         0.2195    0.8307    0.9188 C.3       1 <0>         0.0000
     12 C12         0.8590    2.2074    1.1305 C.3       1 <0>         0.0000
     13 C13         2.3649   -0.5352    1.2935 C.3       1 <0>         0.0000
     14 C14         1.1534   -0.2750    0.3710 C.3       1 <0>         0.0000
     15 C15        -1.1189    3.8600    0.1963 C.3       1 <0>         0.0000
     16 N1          1.6681    0.0834   -0.9557 N.3       1 <0>         0.0000
     17 N2          2.1084   -0.5131    4.9911 N.am      1 <0>         0.0000
     18 N3          2.3999   -0.1941    3.6876 N.am      1 <0>         0.0000
     19 O1          2.1244    1.7030    5.6640 O.2       1 <0>         0.0000
     20 O2          1.2610   -2.0296    2.8442 O.2       1 <0>         0.0000
     21 O3          3.2186   -1.5159    0.7230 O.3       1 <0>         0.0000
     22 S1         -0.3102    3.4478    1.7590 S.3       1 <0>         0.0000
     23 Cl1         2.1456   -3.1420    9.6086 Cl        1 <0>         0.0000
     24 H1          0.1300    1.2490   10.1082 H         1 <0>         0.0000
     25 H2          0.6869    1.9535    7.8073 H         1 <0>         0.0000
     26 H3          0.7668   -0.9949   10.9146 H         1 <0>         0.0000
     27 H4          2.5448   -1.8621    7.0866 H         1 <0>         0.0000
     28 H5         -2.3352    5.4486    1.0211 H         1 <0>         0.0000
     29 H6         -2.9944    4.7495   -0.4593 H         1 <0>         0.0000
     30 H7         -3.1176    3.8651    1.0767 H         1 <0>         0.0000
     31 H8         -0.0488    5.7190   -0.0908 H         1 <0>         0.0000
     32 H9         -0.6728    5.0239   -1.5883 H         1 <0>         0.0000
     33 H10         0.7629    4.3240   -0.8105 H         1 <0>         0.0000
     34 H11        -0.6259    0.9652    0.2307 H         1 <0>         0.0000
     35 H12        -0.2197    0.5004    1.8688 H         1 <0>         0.0000
     36 H13         1.2423    2.5738    0.1722 H         1 <0>         0.0000
     37 H14         1.7108    2.1489    1.8142 H         1 <0>         0.0000
     38 H15         2.9484    0.3859    1.4229 H         1 <0>         0.0000
     39 H16         0.5915   -1.2082    0.2610 H         1 <0>         0.0000
     40 H17        -1.2750    2.9249   -0.3521 H         1 <0>         0.0000
     41 H18         0.8845    0.1717   -1.5934 H         1 <0>         0.0000
     42 H19         2.2416   -0.6802   -1.2969 H         1 <0>         0.0000
     43 H20         1.9830   -1.4798    5.2709 H         1 <0>         0.0000
     44 H21         2.9499    0.6302    3.4697 H         1 <0>         0.0000
     45 H22         2.7041   -2.3378    0.6655 H         1 <0>         0.0000
@<TRIPOS>BOND
     1    1    2 ar
     2    1    3 ar
     3    2    5 ar
     4    3    6 ar
     5    4    5 ar
     6    4    6 ar
     7    5    7 1
     8    6   23 1
     9    7   17 am
    10    7   19 2
    11    8   13 1
    12    8   18 am
    13    8   20 2
    14    9   15 1
    15   10   15 1
    16   11   12 1
    17   11   14 1
    18   12   22 1
    19   13   14 1
    20   13   21 1
    21   14   16 1
    22   15   22 1
    23   17   18 1
    24    1   24 1
    25    2   25 1
    26    3   26 1
    27    4   27 1
    28    9   28 1
    29    9   29 1
    30    9   30 1
    31   10   31 1
    32   10   32 1
    33   10   33 1
    34   11   34 1
    35   11   35 1
    36   12   36 1
    37   12   37 1
    38   13   38 1
    39   14   39 1
    40   15   40 1
    41   16   41 1
    42   16   42 1
    43   17   43 1
    44   18   44 1
    45   21   45 1
@<TRIPOS>MOLECULE
LIGAND
   45    45     0     0     0
SMALL
NO_CHARGES

@<TRIPOS>ATOM
      1 C1          3.9068   -1.8228    9.5212 C.ar      1 <0>         0.0000
      2 C2          4.2280   -1.4546    8.2148 C.ar      1 <0>         0.0000
      3 C3          2.6909   -2.4514    9.7897 C.ar      1 <0>         0.0000
      4 C4          2.1173   -2.3434    7.4453 C.ar      1 <0>         0.0000
      5 C5          3.3333   -1.7148    7.1768 C.ar      1 <0>         0.0000
      6 C6          1.7961   -2.7117    8.7518 C.ar      1 <0>         0.0000
      7 C7          3.6760   -1.3216    5.7855 C.2       1 <0>         0.0000
      8 C8          1.9325   -1.0133    2.6768 C.2       1 <0>         0.0000
      9 C9          0.3770    5.2187   -0.2001 C.3       1 <0>         0.0000
     10 C10         0.1630    6.1072    2.1462 C.3       1 <0>         0.0000
     11 C11         0.2195    0.8307    0.9188 C.3       1 <0>         0.0000
     12 C12         0.8590    2.2074    1.1305 C.3       1 <0>         0.0000
     13 C13         2.3649   -0.5352    1.2935 C.3       1 <0>         0.0000
     14 C14         1.1534   -0.2750    0.3710 C.3       1 <0>         0.0000
     15 C15         0.6016    4.9327    1.2798 C.3       1 <0>         0.0000
     16 N1          1.6681    0.0834   -0.9557 N.3       1 <0>         0.0000
     17 N2          2.6023   -1.0670    4.9540 N.am      1 <0>         0.0000
     18 N3          2.8469   -0.6810    3.6590 N.am      1 <0>         0.0000
     19 O1          4.8567   -1.2304    5.4589 O.2       1 <0>         0.0000
     20 O2          0.8915   -1.6405    2.8632 O.2       1 <0>         0.0000
     21 O3          3.2186   -1.5159    0.7230 O.3       1 <0>         0.0000
     22 S1         -0.3102    3.4478    1.7590 S.3       1 <0>         0.0000
     23 Cl1         0.2961   -3.4877    9.0838 Cl        1 <0>         0.0000
     24 H1          4.6037   -1.6204   10.3291 H         1 <0>         0.0000
     25 H2          5.1785   -0.9653    8.0180 H         1 <0>         0.0000
     26 H3          2.4542   -2.7326   10.8127 H         1 <0>         0.0000
     27 H4          1.4214   -2.5457    6.6335 H         1 <0>         0.0000
     28 H5         -0.6832    5.4173   -0.3928 H         1 <0>         0.0000
     29 H6          0.9382    6.1019   -0.5252 H         1 <0>         0.0000
     30 H7          0.6728    4.3718   -0.8297 H         1 <0>         0.0000
     31 H8         -0.9005    6.3195    1.9896 H         1 <0>         0.0000
     32 H9          0.7176    7.0179    1.8939 H         1 <0>         0.0000
     33 H10         0.3040    5.9029    3.2137 H         1 <0>         0.0000
     34 H11        -0.6259    0.9652    0.2307 H         1 <0>         0.0000
     35 H12        -0.2197    0.5004    1.8688 H         1 <0>         0.0000
     36 H13         1.2423    2.5738    0.1722 H         1 <0>         0.0000
     37 H14         1.7108    2.1489    1.8142 H         1 <0>         0.0000
     38 H15         2.9484    0.3859    1.4229 H         1 <0>         0.0000
     39 H16         0.5915   -1.2082    0.2610 H         1 <0>         0.0000
     40 H17         1.6656    4.7372    1.4509 H         1 <0>         0.0000
     41 H18         0.8845    0.1717   -1.5934 H         1 <0>         0.0000
     42 H19         2.2416   -0.6802   -1.2969 H         1 <0>         0.0000
     43 H20         1.6516   -1.1634    5.2936 H         1 <0>         0.0000
     44 H21         3.6858   -0.1599    3.4266 H         1 <0>         0.0000
     45 H22         2.7041   -2.3378    0.6655 H         1 <0>         0.0000
@<TRIPOS>BOND
     1    1    2 ar
     2    1    3 ar
     3    2    5 ar
     4    3    6 ar
     5    4    5 ar
     6    4    6 ar
     7    5    7 1
     8    6   23 1
     9    7   17 am
    10    7   19 2
    11    8   13 1
    12    8   18 am
    13    8   20 2
    14    9   15 1
    15   10   15 1
    16   11   12 1
    17   11   14 1
    18   12   22 1
    19   13   14 1
    20   13   21 1
    21   14   16 1
    22   15   22 1
    23   17   18 1
    24    1   24 1
    25    2   25 1
    26    3   26 1
    27    4   27 1
    28    9   28 1
    29    9   29 1
    30    9   30 1
    31   10   31 1
    32   10   32 1
    33   10   33 1
    34   11   34 1
    35   11   35 1
    36   12   36 1
    37   12   37 1
    38   13   38 1
    39   14   39 1
    40   15   40 1
    41   16   41 1
    42   16   42 1
    43   17   43 1
    44   18   44 1
    45   21   45 1
@<TRIPOS>MOLECULE
LIGAND
   45    45     0     0     0
SMALL
NO_CHARGES

@<TRIPOS>ATOM
      1 C1         -0.1150    0.7489    9.2206 C.ar      1 <0>         0.0000
      2 C2          0.3538    1.1052    7.9561 C.ar      1 <0>         0.0000
      3 C3         -0.8842   -0.4037    9.3801 C.ar      1 <0>         0.0000
      4 C4         -0.7161   -0.8438    7.0105 C.ar      1 <0>         0.0000
      5 C5          0.0532    0.3088    6.8511 C.ar      1 <0>         0.0000
      6 C6         -1.1848   -1.2000    8.2751 C.ar      1 <0>         0.0000
      7 C7          0.5524    0.6894    5.5043 C.2       1 <0>         0.0000
      8 C8          1.9325   -1.0133    2.6768 C.2       1 <0>         0.0000
      9 C9         -3.4003    1.8811   -1.9325 C.3       1 <0>         0.0000
     10 C10        -1.8862    1.7841   -3.9421 C.3       1 <0>         0.0000
     11 C11         1.5761    0.1765   -1.0474 C.3       1 <0>         0.0000
     12 C12         0.4360    0.4372   -2.0380 C.3       1 <0>         0.0000
     13 C13         2.3649   -0.5352    1.2935 C.3       1 <0>         0.0000
     14 C14         1.1534   -0.2750    0.3710 C.3       1 <0>         0.0000
     15 C15        -2.1244    1.2902   -2.5202 C.3       1 <0>         0.0000
     16 N1          0.3597   -1.5080    0.3138 N.3       1 <0>         0.0000
     17 N2          0.7320   -0.3536    4.6161 N.am      1 <0>         0.0000
     18 N3          1.1743   -0.0714    3.3469 N.am      1 <0>         0.0000
     19 O1          0.7587    1.8736    5.2510 O.2       1 <0>         0.0000
     20 O2          2.2555   -2.1109    3.1269 O.2       1 <0>         0.0000
     21 O3          3.2186   -1.5159    0.7230 O.3       1 <0>         0.0000
     22 S1         -0.7139    1.7277   -1.4786 S.3       1 <0>         0.0000
     23 Cl1        -2.1337   -2.6224    8.4727 Cl        1 <0>         0.0000
     24 H1          0.1194    1.3689   10.0809 H         1 <0>         0.0000
     25 H2          0.9522    2.0057    7.8445 H         1 <0>         0.0000
     26 H3         -1.2425   -0.6686   10.3715 H         1 <0>         0.0000
     27 H4         -0.9486   -1.4634    6.1467 H         1 <0>         0.0000
     28 H5         -3.3408    2.9751   -1.9162 H         1 <0>         0.0000
     29 H6         -4.2773    1.6115   -2.5314 H         1 <0>         0.0000
     30 H7         -3.5699    1.5456   -0.9030 H         1 <0>         0.0000
     31 H8         -1.8034    2.8767   -3.9567 H         1 <0>         0.0000
     32 H9         -2.7162    1.5114   -4.6033 H         1 <0>         0.0000
     33 H10        -0.9606    1.3783   -4.3662 H         1 <0>         0.0000
     34 H11         2.1631    1.1018   -0.9736 H         1 <0>         0.0000
     35 H12         2.2520   -0.5707   -1.4824 H         1 <0>         0.0000
     36 H13        -0.1421   -0.4839   -2.1668 H         1 <0>         0.0000
     37 H14         0.8216    0.7132   -3.0237 H         1 <0>         0.0000
     38 H15         2.9484    0.3859    1.4229 H         1 <0>         0.0000
     39 H16         0.5249    0.4957    0.8291 H         1 <0>         0.0000
     40 H17        -2.2041    0.1979   -2.5275 H         1 <0>         0.0000
     41 H18        -0.4842   -1.3249   -0.2178 H         1 <0>         0.0000
     42 H19         0.0690   -1.7492    1.2550 H         1 <0>         0.0000
     43 H20         0.5409   -1.3094    4.8961 H         1 <0>         0.0000
     44 H21         0.9480    0.8148    2.9078 H         1 <0>         0.0000
     45 H22         2.7041   -2.3378    0.6655 H         1 <0>         0.0000
@<TRIPOS>BOND
     1    1    2 ar
     2    1    3 ar
     3    2    5 ar
     4    3    6 ar
     5    4    5 ar
     6    4    6 ar
     7    5    7 1
     8    6   23 1
     9    7   17 am
    10    7   19 2
    11    8   13 1
    12    8   18 am
    13    8   20 2
    14    9   15 1
    15   10   15 1
    16   11   12 1
    17   11   14 1
    18   12   22 1
    19   13   14 1
    20   13   21 1
    21   14   16 1
    22   15   22 1
    23   17   18 1
    24    1   24 1
    25    2   25 1
    26    3   26 1
    27    4   27 1
    28    9   28 1
    29    9   29 1
    30    9   30 1
    31   10   31 1
    32   10   32 1
    33   10   33 1
    34   11   34 1
    35   11   35 1
    36   12   36 1
    37   12   37 1
    38   13   38 1
    39   14   39 1
    40   15   40 1
    41   16   41 1
    42   16   42 1
    43   17   43 1
    44   18   44 1
    45   21   45 1
@<TRIPOS>MOLECULE
LIGAND
   45    45     0     0     0
SMALL
NO_CHARGES

@<TRIPOS>ATOM
      1 C1          3.3047   -0.8664    9.7081 C.ar      1 <0>         0.0000
      2 C2          3.6057   -0.4258    8.4194 C.ar      1 <0>         0.0000
      3 C3          2.1622   -1.6344    9.9335 C.ar      1 <0>         0.0000
      4 C4          1.6219   -1.5209    7.5815 C.ar      1 <0>         0.0000
      5 C5          2.7643   -0.7530    7.3561 C.ar      1 <0>         0.0000
      6 C6          1.3208   -1.9616    8.8702 C.ar      1 <0>         0.0000
      7 C7          3.0854   -0.2826    5.9837 C.2       1 <0>         0.0000
      8 C8          1.9325   -1.0133    2.6768 C.2       1 <0>         0.0000
      9 C9         -3.5456    2.3208    3.0565 C.3       1 <0>         0.0000
     10 C10        -4.0220    0.6377    1.2453 C.3       1 <0>         0.0000
     11 C11         0.2195    0.8307    0.9188 C.3       1 <0>         0.0000
     12 C12        -1.0001    1.1700    0.0549 C.3       1 <0>         0.0000
     13 C13         2.3649   -0.5352    1.2935 C.3       1 <0>         0.0000
     14 C14         1.1534   -0.2750    0.3710 C.3       1 <0>         0.0000
     15 C15        -2.9459    1.4397    1.9673 C.3       1 <0>         0.0000
     16 N1          1.6681    0.0834   -0.9557 N.3       1 <0>         0.0000
     17 N2          2.6023   -1.0670    4.9540 N.am      1 <0>         0.0000
     18 N3          2.8469   -0.6810    3.6590 N.am      1 <0>         0.0000
     19 O1          3.7293    0.7533    5.8374 O.2       1 <0>         0.0000
     20 O2          0.8915   -1.6405    2.8632 O.2       1 <0>         0.0000
     21 O3          3.2186   -1.5159    0.7230 O.3       1 <0>         0.0000
     22 S1         -2.0492    2.4644    0.7791 S.3       1 <0>         0.0000
     23 Cl1        -0.0884   -2.9097    9.1490 Cl        1 <0>         0.0000
     24 H1          3.9601   -0.6118   10.5358 H         1 <0>         0.0000
     25 H2          4.4987    0.1721    8.2563 H         1 <0>         0.0000
     26 H3          1.9405   -1.9706   10.9431 H         1 <0>         0.0000
     27 H4          0.9676   -1.7751    6.7500 H         1 <0>         0.0000
     28 H5         -4.2705    3.0197    2.6246 H         1 <0>         0.0000
     29 H6         -4.0763    1.7229    3.8059 H         1 <0>         0.0000
     30 H7         -2.7806    2.9152    3.5690 H         1 <0>         0.0000
     31 H8         -4.7543    1.3108    0.7855 H         1 <0>         0.0000
     32 H9         -4.5673   -0.0125    1.9385 H         1 <0>         0.0000
     33 H10        -3.6015    0.0146    0.4477 H         1 <0>         0.0000
     34 H11        -0.1531    0.5335    1.9082 H         1 <0>         0.0000
     35 H12         0.7975    1.7493    1.0822 H         1 <0>         0.0000
     36 H13        -1.6176    0.2727   -0.0585 H         1 <0>         0.0000
     37 H14        -0.7009    1.4813   -0.9501 H         1 <0>         0.0000
     38 H15         2.9484    0.3859    1.4229 H         1 <0>         0.0000
     39 H16         0.5915   -1.2082    0.2610 H         1 <0>         0.0000
     40 H17        -2.2253    0.7496    2.4190 H         1 <0>         0.0000
     41 H18         0.8845    0.1717   -1.5934 H         1 <0>         0.0000
     42 H19         2.2416   -0.6802   -1.2969 H         1 <0>         0.0000
     43 H20         2.0769   -1.9119    5.1509 H         1 <0>         0.0000
     44 H21         3.6858   -0.1599    3.4266 H         1 <0>         0.0000
     45 H22         2.7041   -2.3378    0.6655 H         1 <0>         0.0000
@<TRIPOS>BOND
     1    1    2 ar
     2    1    3 ar
     3    2    5 ar
     4    3    6 ar
     5    4    5 ar
     6    4    6 ar
     7    5    7 1
     8    6   23 1
     9    7   17 am
    10    7   19 2
    11    8   13 1
    12    8   18 am
    13    8   20 2
    14    9   15 1
    15   10   15 1
    16   11   12 1
    17   11   14 1
    18   12   22 1
    19   13   14 1
    20   13   21 1
    21   14   16 1
    22   15   22 1
    23   17   18 1
    24    1   24 1
    25    2   25 1
    26    3   26 1
    27    4   27 1
    28    9   28 1
    29    9   29 1
    30    9   30 1
    31   10   31 1
    32   10   32 1
    33   10   33 1
    34   11   34 1
    35   11   35 1
    36   12   36 1
    37   12   37 1
    38   13   38 1
    39   14   39 1
    40   15   40 1
    41   16   41 1
    42   16   42 1
    43   17   43 1
    44   18   44 1
    45   21   45 1
@<TRIPOS>MOLECULE
LIGAND
   45    45     0     0     0
SMALL
NO_CHARGES

@<TRIPOS>ATOM
      1 C1         -1.7508   -1.5308    8.2465 C.ar      1 <0>         0.0000
      2 C2         -1.4530   -1.2202    6.9197 C.ar      1 <0>         0.0000
      3 C3         -0.8322   -1.2379    9.2545 C.ar      1 <0>         0.0000
      4 C4          0.6821   -0.3238    7.6089 C.ar      1 <0>         0.0000
      5 C5         -0.2366   -0.6167    6.6009 C.ar      1 <0>         0.0000
      6 C6          0.3843   -0.6344    8.9357 C.ar      1 <0>         0.0000
      7 C7          0.0801   -0.2867    5.1871 C.2       1 <0>         0.0000
      8 C8          1.9325   -1.0133    2.6768 C.2       1 <0>         0.0000
      9 C9         -2.9128    0.5416   -2.6174 C.3       1 <0>         0.0000
     10 C10        -2.2142   -0.8878   -4.5691 C.3       1 <0>         0.0000
     11 C11         0.2728   -1.5333    0.1821 C.3       1 <0>         0.0000
     12 C12        -0.9662   -1.3605   -0.7034 C.3       1 <0>         0.0000
     13 C13         2.3649   -0.5352    1.2935 C.3       1 <0>         0.0000
     14 C14         1.1534   -0.2750    0.3710 C.3       1 <0>         0.0000
     15 C15        -2.2483   -0.7595   -3.0509 C.3       1 <0>         0.0000
     16 N1          0.3761    0.8265    0.9508 N.3       1 <0>         0.0000
     17 N2          1.4238   -0.2520    4.8674 N.am      1 <0>         0.0000
     18 N3          1.7877    0.0290    3.5734 N.am      1 <0>         0.0000
     19 O1         -0.8375   -0.0833    4.3961 O.2       1 <0>         0.0000
     20 O2          1.7602   -2.2018    2.9407 O.2       1 <0>         0.0000
     21 O3          3.2186   -1.5159    0.7230 O.3       1 <0>         0.0000
     22 S1         -0.5659   -0.8328   -2.3950 S.3       1 <0>         0.0000
     23 Cl1         1.5171   -0.2728   10.1801 Cl        1 <0>         0.0000
     24 H1         -2.6981   -2.0004    8.4946 H         1 <0>         0.0000
     25 H2         -2.1768   -1.4534    6.1430 H         1 <0>         0.0000
     26 H3         -1.0781   -1.4858   10.2839 H         1 <0>         0.0000
     27 H4          1.6301    0.1476    7.3573 H         1 <0>         0.0000
     28 H5         -2.3709    1.4010   -3.0278 H         1 <0>         0.0000
     29 H6         -3.9445    0.6030   -2.9814 H         1 <0>         0.0000
     30 H7         -2.9253    0.6509   -1.5269 H         1 <0>         0.0000
     31 H8         -1.6616   -0.0504   -5.0096 H         1 <0>         0.0000
     32 H9         -3.2242   -0.8708   -4.9935 H         1 <0>         0.0000
     33 H10        -1.7214   -1.8125   -4.8903 H         1 <0>         0.0000
     34 H11         0.8786   -2.3375   -0.2566 H         1 <0>         0.0000
     35 H12        -0.0491   -1.9048    1.1634 H         1 <0>         0.0000
     36 H13        -1.6137   -0.5937   -0.2651 H         1 <0>         0.0000
     37 H14        -1.5515   -2.2833   -0.7522 H         1 <0>         0.0000
     38 H15         2.9484    0.3859    1.4229 H         1 <0>         0.0000
     39 H16         1.5222    0.0640   -0.6025 H         1 <0>         0.0000
     40 H17        -2.8042   -1.6046   -2.6310 H         1 <0>         0.0000
     41 H18        -0.3732    1.0655    0.3105 H         1 <0>         0.0000
     42 H19         0.9747    1.6420    1.0220 H         1 <0>         0.0000
     43 H20         2.1281   -0.4306    5.5750 H         1 <0>         0.0000
     44 H21         1.9478    0.9869    3.2798 H         1 <0>         0.0000
     45 H22         2.7041   -2.3378    0.6655 H         1 <0>         0.0000
@<TRIPOS>BOND
     1    1    2 ar
     2    1    3 ar
     3    2    5 ar
     4    3    6 ar
     5    4    5 ar
     6    4    6 ar
     7    5    7 1
     8    6   23 1
     9    7   17 am
    10    7   19 2
    11    8   13 1
    12    8   18 am
    13    8   20 2
    14    9   15 1
    15   10   15 1
    16   11   12 1
    17   11   14 1
    18   12   22 1
    19   13   14 1
    20   13   21 1
    21   14   16 1
    22   15   22 1
    23   17   18 1
    24    1   24 1
    25    2   25 1
    26    3   26 1
    27    4   27 1
    28    9   28 1
    29    9   29 1
    30    9   30 1
    31   10   31 1
    32   10   32 1
    33   10   33 1
    34   11   34 1
    35   11   35 1
    36   12   36 1
    37   12   37 1
    38   13   38 1
    39   14   39 1
    40   15   40 1
    41   16   41 1
    42   16   42 1
    43   17   43 1
    44   18   44 1
    45   21   45 1
@<TRIPOS>MOLECULE
LIGAND
   45    45     0     0     0
SMALL
NO_CHARGES

@<TRIPOS>ATOM
      1 C1         -2.8134   -3.6397    6.9542 C.ar      1 <0>         0.0000
      2 C2         -2.3780   -3.0405    5.7723 C.ar      1 <0>         0.0000
      3 C3         -1.8836   -4.1212    7.8758 C.ar      1 <0>         0.0000
      4 C4         -0.0829   -3.4042    6.4334 C.ar      1 <0>         0.0000
      5 C5         -1.0128   -2.9227    5.5119 C.ar      1 <0>         0.0000
      6 C6         -0.5183   -4.0035    7.6154 C.ar      1 <0>         0.0000
      7 C7         -0.5498   -2.2848    4.2523 C.2       1 <0>         0.0000
      8 C8          1.9325   -1.0133    2.6768 C.2       1 <0>         0.0000
      9 C9          0.0309    6.1524    1.8816 C.3       1 <0>         0.0000
     10 C10         1.7102    4.7140    3.0862 C.3       1 <0>         0.0000
     11 C11         0.2195    0.8307    0.9188 C.3       1 <0>         0.0000
     12 C12         0.8590    2.2074    1.1305 C.3       1 <0>         0.0000
     13 C13         2.3649   -0.5352    1.2935 C.3       1 <0>         0.0000
     14 C14         1.1534   -0.2750    0.3710 C.3       1 <0>         0.0000
     15 C15         0.8241    4.8515    1.8540 C.3       1 <0>         0.0000
     16 N1          1.6681    0.0834   -0.9557 N.3       1 <0>         0.0000
     17 N2          0.6851   -2.6985    3.7909 N.am      1 <0>         0.0000
     18 N3          1.1665   -2.1628    2.6216 N.am      1 <0>         0.0000
     19 O1         -1.2703   -1.4609    3.6944 O.2       1 <0>         0.0000
     20 O2          2.2299   -0.4108    3.7066 O.2       1 <0>         0.0000
     21 O3          3.2186   -1.5159    0.7230 O.3       1 <0>         0.0000
     22 S1         -0.3102    3.4478    1.7590 S.3       1 <0>         0.0000
     23 Cl1         0.6285   -4.5974    8.7532 Cl        1 <0>         0.0000
     24 H1         -3.8765   -3.7310    7.1569 H         1 <0>         0.0000
     25 H2         -3.1122   -2.6692    5.0619 H         1 <0>         0.0000
     26 H3         -2.2377   -4.5858    8.7924 H         1 <0>         0.0000
     27 H4          0.9816   -3.3106    6.2279 H         1 <0>         0.0000
     28 H5         -0.6040    6.1923    2.7738 H         1 <0>         0.0000
     29 H6          0.6947    7.0236    1.9150 H         1 <0>         0.0000
     30 H7         -0.6232    6.2512    1.0077 H         1 <0>         0.0000
     31 H8          1.1011    4.7317    3.9969 H         1 <0>         0.0000
     32 H9          2.4261    5.5404    3.1569 H         1 <0>         0.0000
     33 H10         2.2708    3.7722    3.0836 H         1 <0>         0.0000
     34 H11        -0.6259    0.9652    0.2307 H         1 <0>         0.0000
     35 H12        -0.2197    0.5004    1.8688 H         1 <0>         0.0000
     36 H13         1.2423    2.5738    0.1722 H         1 <0>         0.0000
     37 H14         1.7108    2.1489    1.8142 H         1 <0>         0.0000
     38 H15         2.9484    0.3859    1.4229 H         1 <0>         0.0000
     39 H16         0.5915   -1.2082    0.2610 H         1 <0>         0.0000
     40 H17         1.4510    4.8315    0.9561 H         1 <0>         0.0000
     41 H18         0.8845    0.1717   -1.5934 H         1 <0>         0.0000
     42 H19         2.2416   -0.6802   -1.2969 H         1 <0>         0.0000
     43 H20         1.2257   -3.3847    4.3060 H         1 <0>         0.0000
     44 H21         0.9630   -2.6038    1.7309 H         1 <0>         0.0000
     45 H22         2.7041   -2.3378    0.6655 H         1 <0>         0.0000
@<TRIPOS>BOND
     1    1    2 ar
     2    1    3 ar
     3    2    5 ar
     4    3    6 ar
     5    4    5 ar
     6    4    6 ar
     7    5    7 1
     8    6   23 1
     9    7   17 am
    10    7   19 2
    11    8   13 1
    12    8   18 am
    13    8   20 2
    14    9   15 1
    15   10   15 1
    16   11   12 1
    17   11   14 1
    18   12   22 1
    19   13   14 1
    20   13   21 1
    21   14   16 1
    22   15   22 1
    23   17   18 1
    24    1   24 1
    25    2   25 1
    26    3   26 1
    27    4   27 1
    28    9   28 1
    29    9   29 1
    30    9   30 1
    31   10   31 1
    32   10   32 1
    33   10   33 1
    34   11   34 1
    35   11   35 1
    36   12   36 1
    37   12   37 1
    38   13   38 1
    39   14   39 1
    40   15   40 1
    41   16   41 1
    42   16   42 1
    43   17   43 1
    44   18   44 1
    45   21   45 1
@<TRIPOS>MOLECULE
LIGAND
   45    45     0     0     0
SMALL
NO_CHARGES

@<TRIPOS>ATOM
      1 C1         -1.2272   -6.2301    6.4377 C.ar      1 <0>         0.0000
      2 C2         -0.7545   -5.7521    5.2155 C.ar      1 <0>         0.0000
      3 C3         -0.9569   -5.5285    7.6126 C.ar      1 <0>         0.0000
      4 C4          0.2589   -3.8711    6.3432 C.ar      1 <0>         0.0000
      5 C5         -0.0114   -4.5726    5.1683 C.ar      1 <0>         0.0000
      6 C6         -0.2138   -4.3490    7.5654 C.ar      1 <0>         0.0000
      7 C7          0.4923   -4.0645    3.8660 C.2       1 <0>         0.0000
      8 C8          1.9325   -1.0133    2.6768 C.2       1 <0>         0.0000
      9 C9         -3.5953   -0.8020   -2.4330 C.3       1 <0>         0.0000
     10 C10        -4.0047    1.3935   -1.2699 C.3       1 <0>         0.0000
     11 C11         0.2195    0.8307    0.9188 C.3       1 <0>         0.0000
     12 C12        -1.0001    1.1700    0.0549 C.3       1 <0>         0.0000
     13 C13         2.3649   -0.5352    1.2935 C.3       1 <0>         0.0000
     14 C14         1.1534   -0.2750    0.3710 C.3       1 <0>         0.0000
     15 C15        -2.9606    0.3632   -1.6834 C.3       1 <0>         0.0000
     16 N1          1.6681    0.0834   -0.9557 N.3       1 <0>         0.0000
     17 N2          0.6851   -2.6985    3.7909 N.am      1 <0>         0.0000
     18 N3          1.1665   -2.1628    2.6216 N.am      1 <0>         0.0000
     19 O1          0.7194   -4.8589    2.9568 O.2       1 <0>         0.0000
     20 O2          2.2299   -0.4108    3.7066 O.2       1 <0>         0.0000
     21 O3          3.2186   -1.5159    0.7230 O.3       1 <0>         0.0000
     22 S1         -2.0977   -0.2515   -0.2193 S.3       1 <0>         0.0000
     23 Cl1         0.1189   -3.4836    9.0155 Cl        1 <0>         0.0000
     24 H1         -1.8061   -7.1482    6.4742 H         1 <0>         0.0000
     25 H2         -0.9716   -6.3077    4.3068 H         1 <0>         0.0000
     26 H3         -1.3318   -5.9131    8.5576 H         1 <0>         0.0000
     27 H4          0.8384   -2.9509    6.3032 H         1 <0>         0.0000
     28 H5         -4.3436   -1.2969   -1.8040 H         1 <0>         0.0000
     29 H6         -4.1065   -0.4613   -3.3404 H         1 <0>         0.0000
     30 H7         -2.8540   -1.5571   -2.7183 H         1 <0>         0.0000
     31 H8         -4.7593    0.9323   -0.6229 H         1 <0>         0.0000
     32 H9         -4.5284    1.8023   -2.1412 H         1 <0>         0.0000
     33 H10        -3.5593    2.2264   -0.7139 H         1 <0>         0.0000
     34 H11        -0.1531    0.5335    1.9082 H         1 <0>         0.0000
     35 H12         0.7975    1.7493    1.0822 H         1 <0>         0.0000
     36 H13        -0.6573    1.5138   -0.9268 H         1 <0>         0.0000
     37 H14        -1.5832    1.9849    0.4933 H         1 <0>         0.0000
     38 H15         2.9484    0.3859    1.4229 H         1 <0>         0.0000
     39 H16         0.5915   -1.2082    0.2610 H         1 <0>         0.0000
     40 H17        -2.2171    0.8435   -2.3283 H         1 <0>         0.0000
     41 H18         0.8845    0.1717   -1.5934 H         1 <0>         0.0000
     42 H19         2.2416   -0.6802   -1.2969 H         1 <0>         0.0000
     43 H20         0.4750   -2.1026    4.5842 H         1 <0>         0.0000
     44 H21         0.9630   -2.6038    1.7309 H         1 <0>         0.0000
     45 H22         2.7041   -2.3378    0.6655 H         1 <0>         0.0000
@<TRIPOS>BOND
     1    1    2 ar
     2    1    3 ar
     3    2    5 ar
     4    3    6 ar
     5    4    5 ar
     6    4    6 ar
     7    5    7 1
     8    6   23 1
     9    7   17 am
    10    7   19 2
    11    8   13 1
    12    8   18 am
    13    8   20 2
    14    9   15 1
    15   10   15 1
    16   11   12 1
    17   11   14 1
    18   12   22 1
    19   13   14 1
    20   13   21 1
    21   14   16 1
    22   15   22 1
    23   17   18 1
    24    1   24 1
    25    2   25 1
    26    3   26 1
    27    4   27 1
    28    9   28 1
    29    9   29 1
    30    9   30 1
    31   10   31 1
    32   10   32 1
    33   10   33 1
    34   11   34 1
    35   11   35 1
    36   12   36 1
    37   12   37 1
    38   13   38 1
    39   14   39 1
    40   15   40 1
    41   16   41 1
    42   16   42 1
    43   17   43 1
    44   18   44 1
    45   21   45 1
@<TRIPOS>MOLECULE
LIGAND
   45    45     0     0     0
SMALL
NO_CHARGES

@<TRIPOS>ATOM
      1 C1          0.6903   -1.4334    8.8465 C.ar      1 <0>         0.0000
      2 C2          1.1123   -1.0980    7.5601 C.ar      1 <0>         0.0000
      3 C3          0.5659   -0.4424    9.8203 C.ar      1 <0>         0.0000
      4 C4          1.2856    1.2194    8.2211 C.ar      1 <0>         0.0000
      5 C5          1.4099    0.2284    7.2473 C.ar      1 <0>         0.0000
      6 C6          0.8636    0.8839    9.5076 C.ar      1 <0>         0.0000
      7 C7          1.8600    0.5847    5.8768 C.2       1 <0>         0.0000
      8 C8          1.9325   -1.0133    2.6768 C.2       1 <0>         0.0000
      9 C9         -4.2088   -0.4946    1.1295 C.3       1 <0>         0.0000
     10 C10        -3.2081   -2.7893    0.8595 C.3       1 <0>         0.0000
     11 C11        -0.0095    0.4324    1.1072 C.3       1 <0>         0.0000
     12 C12        -1.2475    0.7494    0.2611 C.3       1 <0>         0.0000
     13 C13         2.3649   -0.5352    1.2935 C.3       1 <0>         0.0000
     14 C14         1.1534   -0.2750    0.3710 C.3       1 <0>         0.0000
     15 C15        -2.9219   -1.2977    0.9836 C.3       1 <0>         0.0000
     16 N1          1.6190    0.5274   -0.7660 N.3       1 <0>         0.0000
     17 N2          1.4238   -0.2520    4.8674 N.am      1 <0>         0.0000
     18 N3          1.7877    0.0290    3.5734 N.am      1 <0>         0.0000
     19 O1          2.5607    1.5803    5.7128 O.2       1 <0>         0.0000
     20 O2          1.7602   -2.2018    2.9407 O.2       1 <0>         0.0000
     21 O3          3.2186   -1.5159    0.7230 O.3       1 <0>         0.0000
     22 S1         -2.0098   -0.7290   -0.4693 S.3       1 <0>         0.0000
     23 Cl1         0.7094    2.1063   10.7095 Cl        1 <0>         0.0000
     24 H1          0.4583   -2.4661    9.0897 H         1 <0>         0.0000
     25 H2          1.2054   -1.8791    6.8098 H         1 <0>         0.0000
     26 H3          0.2360   -0.7187   10.8184 H         1 <0>         0.0000
     27 H4          1.5180    2.2533    7.9741 H         1 <0>         0.0000
     28 H5         -4.8575   -0.6541    0.2609 H         1 <0>         0.0000
     29 H6         -4.7721   -0.8019    2.0176 H         1 <0>         0.0000
     30 H7         -4.0134    0.5815    1.2009 H         1 <0>         0.0000
     31 H8         -3.8414   -2.9842   -0.0132 H         1 <0>         0.0000
     32 H9         -3.7402   -3.1679    1.7393 H         1 <0>         0.0000
     33 H10        -2.2888   -3.3731    0.7357 H         1 <0>         0.0000
     34 H11        -0.3395   -0.1920    1.9483 H         1 <0>         0.0000
     35 H12         0.3553    1.3657    1.5547 H         1 <0>         0.0000
     36 H13        -0.9567    1.4096   -0.5629 H         1 <0>         0.0000
     37 H14        -2.0028    1.2819    0.8462 H         1 <0>         0.0000
     38 H15         2.9484    0.3859    1.4229 H         1 <0>         0.0000
     39 H16         0.8058   -1.2336   -0.0276 H         1 <0>         0.0000
     40 H17        -2.2886   -1.1246    1.8602 H         1 <0>         0.0000
     41 H18         0.8536    0.6316   -1.4231 H         1 <0>         0.0000
     42 H19         2.3513    0.0146   -1.2450 H         1 <0>         0.0000
     43 H20         0.8460   -1.0583    5.0782 H         1 <0>         0.0000
     44 H21         1.9478    0.9869    3.2798 H         1 <0>         0.0000
     45 H22         2.7041   -2.3378    0.6655 H         1 <0>         0.0000
@<TRIPOS>BOND
     1    1    2 ar
     2    1    3 ar
     3    2    5 ar
     4    3    6 ar
     5    4    5 ar
     6    4    6 ar
     7    5    7 1
     8    6   23 1
     9    7   17 am
    10    7   19 2
    11    8   13 1
    12    8   18 am
    13    8   20 2
    14    9   15 1
    15   10   15 1
    16   11   12 1
    17   11   14 1
    18   12   22 1
    19   13   14 1
    20   13   21 1
    21   14   16 1
    22   15   22 1
    23   17   18 1
    24    1   24 1
    25    2   25 1
    26    3   26 1
    27    4   27 1
    28    9   28 1
    29    9   29 1
    30    9   30 1
    31   10   31 1
    32   10   32 1
    33   10   33 1
    34   11   34 1
    35   11   35 1
    36   12   36 1
    37   12   37 1
    38   13   38 1
    39   14   39 1
    40   15   40 1
    41   16   41 1
    42   16   42 1
    43   17   43 1
    44   18   44 1
    45   21   45 1
@<TRIPOS>MOLECULE
LIGAND
   45    45     0     0     0
SMALL
NO_CHARGES

@<TRIPOS>ATOM
      1 C1         -2.1326   -2.6043    7.7561 C.ar      1 <0>         0.0000
      2 C2         -1.7551   -2.3302    6.4416 C.ar      1 <0>         0.0000
      3 C3         -1.6491   -1.8151    8.7997 C.ar      1 <0>         0.0000
      4 C4         -0.4104   -0.4776    7.2142 C.ar      1 <0>         0.0000
      5 C5         -0.8940   -1.2668    6.1707 C.ar      1 <0>         0.0000
      6 C6         -0.7879   -0.7518    8.5287 C.ar      1 <0>         0.0000
      7 C7         -0.4919   -0.9759    4.7701 C.2       1 <0>         0.0000
      8 C8          1.9325   -1.0133    2.6768 C.2       1 <0>         0.0000
      9 C9         -0.4527    2.0643   -5.6954 C.3       1 <0>         0.0000
     10 C10        -1.1282   -0.2129   -4.8599 C.3       1 <0>         0.0000
     11 C11         1.5761    0.1765   -1.0474 C.3       1 <0>         0.0000
     12 C12         0.4360    0.4372   -2.0380 C.3       1 <0>         0.0000
     13 C13         2.3649   -0.5352    1.2935 C.3       1 <0>         0.0000
     14 C14         1.1534   -0.2750    0.3710 C.3       1 <0>         0.0000
     15 C15        -0.5876    1.1594   -4.4766 C.3       1 <0>         0.0000
     16 N1          0.3597   -1.5080    0.3138 N.3       1 <0>         0.0000
     17 N2          0.7320   -0.3536    4.6161 N.am      1 <0>         0.0000
     18 N3          1.1743   -0.0714    3.3469 N.am      1 <0>         0.0000
     19 O1         -1.2351   -1.3059    3.8493 O.2       1 <0>         0.0000
     20 O2          2.2555   -2.1109    3.1269 O.2       1 <0>         0.0000
     21 O3          3.2186   -1.5159    0.7230 O.3       1 <0>         0.0000
     22 S1          1.0200    0.9781   -3.6711 S.3       1 <0>         0.0000
     23 Cl1        -0.1920    0.2220    9.8169 Cl        1 <0>         0.0000
     24 H1         -2.8034   -3.4321    7.9668 H         1 <0>         0.0000
     25 H2         -2.1385   -2.9523    5.6369 H         1 <0>         0.0000
     26 H3         -1.9519   -2.0407    9.8189 H         1 <0>         0.0000
     27 H4          0.2608    0.3516    6.9998 H         1 <0>         0.0000
     28 H5          0.2251    1.6152   -6.4298 H         1 <0>         0.0000
     29 H6         -1.4187    2.2120   -6.1912 H         1 <0>         0.0000
     30 H7         -0.0471    3.0477   -5.4316 H         1 <0>         0.0000
     31 H8         -0.4607   -0.6971   -5.5815 H         1 <0>         0.0000
     32 H9         -2.1151   -0.1359   -5.3296 H         1 <0>         0.0000
     33 H10        -1.2112   -0.8767   -3.9917 H         1 <0>         0.0000
     34 H11         2.1631    1.1018   -0.9736 H         1 <0>         0.0000
     35 H12         2.2520   -0.5707   -1.4824 H         1 <0>         0.0000
     36 H13        -0.2073    1.2295   -1.6408 H         1 <0>         0.0000
     37 H14        -0.1907   -0.4501   -2.1649 H         1 <0>         0.0000
     38 H15         2.9484    0.3859    1.4229 H         1 <0>         0.0000
     39 H16         0.5249    0.4957    0.8291 H         1 <0>         0.0000
     40 H17        -1.2679    1.6256   -3.7560 H         1 <0>         0.0000
     41 H18        -0.4842   -1.3249   -0.2178 H         1 <0>         0.0000
     42 H19         0.0690   -1.7492    1.2550 H         1 <0>         0.0000
     43 H20         1.2931   -0.1098    5.4249 H         1 <0>         0.0000
     44 H21         0.9480    0.8148    2.9078 H         1 <0>         0.0000
     45 H22         2.7041   -2.3378    0.6655 H         1 <0>         0.0000
@<TRIPOS>BOND
     1    1    2 ar
     2    1    3 ar
     3    2    5 ar
     4    3    6 ar
     5    4    5 ar
     6    4    6 ar
     7    5    7 1
     8    6   23 1
     9    7   17 am
    10    7   19 2
    11    8   13 1
    12    8   18 am
    13    8   20 2
    14    9   15 1
    15   10   15 1
    16   11   12 1
    17   11   14 1
    18   12   22 1
    19   13   14 1
    20   13   21 1
    21   14   16 1
    22   15   22 1
    23   17   18 1
    24    1   24 1
    25    2   25 1
    26    3   26 1
    27    4   27 1
    28    9   28 1
    29    9   29 1
    30    9   30 1
    31   10   31 1
    32   10   32 1
    33   10   33 1
    34   11   34 1
    35   11   35 1
    36   12   36 1
    37   12   37 1
    38   13   38 1
    39   14   39 1
    40   15   40 1
    41   16   41 1
    42   16   42 1
    43   17   43 1
    44   18   44 1
    45   21   45 1
@<TRIPOS>MOLECULE
LIGAND
   45    45     0     0     0
SMALL
NO_CHARGES

@<TRIPOS>ATOM
      1 C1         -2.3305   -2.8430    7.5352 C.ar      1 <0>         0.0000
      2 C2         -1.8950   -2.2446    6.3529 C.ar      1 <0>         0.0000
      3 C3         -1.8838   -4.1195    7.8766 C.ar      1 <0>         0.0000
      4 C4         -0.5660   -4.1993    5.8532 C.ar      1 <0>         0.0000
      5 C5         -1.0128   -2.9227    5.5119 C.ar      1 <0>         0.0000
      6 C6         -1.0015   -4.7977    7.0355 C.ar      1 <0>         0.0000
      7 C7         -0.5498   -2.2848    4.2523 C.2       1 <0>         0.0000
      8 C8          1.9325   -1.0133    2.6768 C.2       1 <0>         0.0000
      9 C9          0.0309    6.1524    1.8816 C.3       1 <0>         0.0000
     10 C10         1.7102    4.7140    3.0862 C.3       1 <0>         0.0000
     11 C11         0.2195    0.8307    0.9188 C.3       1 <0>         0.0000
     12 C12         0.8590    2.2074    1.1305 C.3       1 <0>         0.0000
     13 C13         2.3649   -0.5352    1.2935 C.3       1 <0>         0.0000
     14 C14         1.1534   -0.2750    0.3710 C.3       1 <0>         0.0000
     15 C15         0.8241    4.8515    1.8540 C.3       1 <0>         0.0000
     16 N1          1.6681    0.0834   -0.9557 N.3       1 <0>         0.0000
     17 N2          0.6851   -2.6985    3.7909 N.am      1 <0>         0.0000
     18 N3          1.1665   -2.1628    2.6216 N.am      1 <0>         0.0000
     19 O1         -1.2703   -1.4609    3.6944 O.2       1 <0>         0.0000
     20 O2          2.2299   -0.4108    3.7066 O.2       1 <0>         0.0000
     21 O3          3.2186   -1.5159    0.7230 O.3       1 <0>         0.0000
     22 S1         -0.3102    3.4478    1.7590 S.3       1 <0>         0.0000
     23 Cl1        -0.4502   -6.3727    7.4576 Cl        1 <0>         0.0000
     24 H1         -3.0172   -2.3146    8.1901 H         1 <0>         0.0000
     25 H2         -2.2503   -1.2495    6.0977 H         1 <0>         0.0000
     26 H3         -2.2317   -4.5731    8.8010 H         1 <0>         0.0000
     27 H4          0.1227   -4.7258    5.1954 H         1 <0>         0.0000
     28 H5         -0.6040    6.1923    2.7738 H         1 <0>         0.0000
     29 H6          0.6947    7.0236    1.9150 H         1 <0>         0.0000
     30 H7         -0.6232    6.2512    1.0077 H         1 <0>         0.0000
     31 H8          1.1011    4.7317    3.9969 H         1 <0>         0.0000
     32 H9          2.4261    5.5404    3.1569 H         1 <0>         0.0000
     33 H10         2.2708    3.7722    3.0836 H         1 <0>         0.0000
     34 H11        -0.6259    0.9652    0.2307 H         1 <0>         0.0000
     35 H12        -0.2197    0.5004    1.8688 H         1 <0>         0.0000
     36 H13         1.2423    2.5738    0.1722 H         1 <0>         0.0000
     37 H14         1.7108    2.1489    1.8142 H         1 <0>         0.0000
     38 H15         2.9484    0.3859    1.4229 H         1 <0>         0.0000
     39 H16         0.5915   -1.2082    0.2610 H         1 <0>         0.0000
     40 H17         1.4510    4.8315    0.9561 H         1 <0>         0.0000
     41 H18         0.8845    0.1717   -1.5934 H         1 <0>         0.0000
     42 H19         2.2416   -0.6802   -1.2969 H         1 <0>         0.0000
     43 H20         1.2257   -3.3847    4.3060 H         1 <0>         0.0000
     44 H21         0.9630   -2.6038    1.7309 H         1 <0>         0.0000
     45 H22         2.7041   -2.3378    0.6655 H         1 <0>         0.0000
@<TRIPOS>BOND
     1    1    2 ar
     2    1    3 ar
     3    2    5 ar
     4    3    6 ar
     5    4    5 ar
     6    4    6 ar
     7    5    7 1
     8    6   23 1
     9    7   17 am
    10    7   19 2
    11    8   13 1
    12    8   18 am
    13    8   20 2
    14    9   15 1
    15   10   15 1
    16   11   12 1
    17   11   14 1
    18   12   22 1
    19   13   14 1
    20   13   21 1
    21   14   16 1
    22   15   22 1
    23   17   18 1
    24    1   24 1
    25    2   25 1
    26    3   26 1
    27    4   27 1
    28    9   28 1
    29    9   29 1
    30    9   30 1
    31   10   31 1
    32   10   32 1
    33   10   33 1
    34   11   34 1
    35   11   35 1
    36   12   36 1
    37   12   37 1
    38   13   38 1
    39   14   39 1
    40   15   40 1
    41   16   41 1
    42   16   42 1
    43   17   43 1
    44   18   44 1
    45   21   45 1
@<TRIPOS>MOLECULE
LIGAND
   45    45     0     0     0
SMALL
NO_CHARGES

@<TRIPOS>ATOM
      1 C1         -1.7183   -0.4637    8.5029 C.ar      1 <0>         0.0000
      2 C2         -1.4200   -0.1538    7.1760 C.ar      1 <0>         0.0000
      3 C3         -0.8331   -1.2363    9.2547 C.ar      1 <0>         0.0000
      4 C4          0.6487   -1.3893    7.3526 C.ar      1 <0>         0.0000
      5 C5         -0.2366   -0.6167    6.6009 C.ar      1 <0>         0.0000
      6 C6          0.3503   -1.6991    8.6795 C.ar      1 <0>         0.0000
      7 C7          0.0801   -0.2867    5.1871 C.2       1 <0>         0.0000
      8 C8          1.9325   -1.0133    2.6768 C.2       1 <0>         0.0000
      9 C9          0.9992    5.4655    0.4702 C.3       1 <0>         0.0000
     10 C10         0.2949    5.8734    2.8530 C.3       1 <0>         0.0000
     11 C11         0.2195    0.8307    0.9188 C.3       1 <0>         0.0000
     12 C12         0.8590    2.2074    1.1305 C.3       1 <0>         0.0000
     13 C13         2.3649   -0.5352    1.2935 C.3       1 <0>         0.0000
     14 C14         1.1534   -0.2750    0.3710 C.3       1 <0>         0.0000
     15 C15         0.8241    4.8515    1.8540 C.3       1 <0>         0.0000
     16 N1          1.6681    0.0834   -0.9557 N.3       1 <0>         0.0000
     17 N2          1.4238   -0.2520    4.8674 N.am      1 <0>         0.0000
     18 N3          1.7877    0.0290    3.5734 N.am      1 <0>         0.0000
     19 O1         -0.8375   -0.0833    4.3961 O.2       1 <0>         0.0000
     20 O2          1.7602   -2.2018    2.9407 O.2       1 <0>         0.0000
     21 O3          3.2186   -1.5159    0.7230 O.3       1 <0>         0.0000
     22 S1         -0.3102    3.4478    1.7590 S.3       1 <0>         0.0000
     23 Cl1         1.4424   -2.6521    9.6079 Cl        1 <0>         0.0000
     24 H1         -2.6397   -0.1029    8.9506 H         1 <0>         0.0000
     25 H2         -2.1177    0.4490    6.6003 H         1 <0>         0.0000
     26 H3         -1.0790   -1.4697   10.2874 H         1 <0>         0.0000
     27 H4          1.5714   -1.7486    6.9015 H         1 <0>         0.0000
     28 H5          0.0422    5.8509    0.1009 H         1 <0>         0.0000
     29 H6          1.7019    6.3059    0.4928 H         1 <0>         0.0000
     30 H7          1.3622    4.7326   -0.2594 H         1 <0>         0.0000
     31 H8         -0.6729    6.2651    2.5204 H         1 <0>         0.0000
     32 H9          0.9758    6.7263    2.9496 H         1 <0>         0.0000
     33 H10         0.1486    5.4355    3.8470 H         1 <0>         0.0000
     34 H11        -0.6259    0.9652    0.2307 H         1 <0>         0.0000
     35 H12        -0.2197    0.5004    1.8688 H         1 <0>         0.0000
     36 H13         1.2423    2.5738    0.1722 H         1 <0>         0.0000
     37 H14         1.7108    2.1489    1.8142 H         1 <0>         0.0000
     38 H15         2.9484    0.3859    1.4229 H         1 <0>         0.0000
     39 H16         0.5915   -1.2082    0.2610 H         1 <0>         0.0000
     40 H17         1.7903    4.4730    2.2043 H         1 <0>         0.0000
     41 H18         0.8845    0.1717   -1.5934 H         1 <0>         0.0000
     42 H19         2.2416   -0.6802   -1.2969 H         1 <0>         0.0000
     43 H20         2.1281   -0.4306    5.5750 H         1 <0>         0.0000
     44 H21         1.9478    0.9869    3.2798 H         1 <0>         0.0000
     45 H22         2.7041   -2.3378    0.6655 H         1 <0>         0.0000
@<TRIPOS>BOND
     1    1    2 ar
     2    1    3 ar
     3    2    5 ar
     4    3    6 ar
     5    4    5 ar
     6    4    6 ar
     7    5    7 1
     8    6   23 1
     9    7   17 am
    10    7   19 2
    11    8   13 1
    12    8   18 am
    13    8   20 2
    14    9   15 1
    15   10   15 1
    16   11   12 1
    17   11   14 1
    18   12   22 1
    19   13   14 1
    20   13   21 1
    21   14   16 1
    22   15   22 1
    23   17   18 1
    24    1   24 1
    25    2   25 1
    26    3   26 1
    27    4   27 1
    28    9   28 1
    29    9   29 1
    30    9   30 1
    31   10   31 1
    32   10   32 1
    33   10   33 1
    34   11   34 1
    35   11   35 1
    36   12   36 1
    37   12   37 1
    38   13   38 1
    39   14   39 1
    40   15   40 1
    41   16   41 1
    42   16   42 1
    43   17   43 1
    44   18   44 1
    45   21   45 1
@<TRIPOS>MOLECULE
LIGAND
   45    45     0     0     0
SMALL
NO_CHARGES

@<TRIPOS>ATOM
      1 C1          0.8357    0.1354    9.3996 C.ar      1 <0>         0.0000
      2 C2          1.3551    0.4336    8.1400 C.ar      1 <0>         0.0000
      3 C3         -0.0643   -0.9196    9.5510 C.ar      1 <0>         0.0000
      4 C4          0.0746   -1.3780    7.1830 C.ar      1 <0>         0.0000
      5 C5          0.9746   -0.3231    7.0316 C.ar      1 <0>         0.0000
      6 C6         -0.4448   -1.6762    8.4427 C.ar      1 <0>         0.0000
      7 C7          1.5280   -0.0043    5.6900 C.2       1 <0>         0.0000
      8 C8          1.9325   -1.0133    2.6768 C.2       1 <0>         0.0000
      9 C9          0.2249   -1.3614   -4.8293 C.3       1 <0>         0.0000
     10 C10         2.4955   -0.4691   -5.4530 C.3       1 <0>         0.0000
     11 C11         1.5761    0.1765   -1.0474 C.3       1 <0>         0.0000
     12 C12         0.4360    0.4372   -2.0380 C.3       1 <0>         0.0000
     13 C13         2.3649   -0.5352    1.2935 C.3       1 <0>         0.0000
     14 C14         1.1534   -0.2750    0.3710 C.3       1 <0>         0.0000
     15 C15         1.4734   -0.6402   -4.3356 C.3       1 <0>         0.0000
     16 N1          0.3597   -1.5080    0.3138 N.3       1 <0>         0.0000
     17 N2          0.7320   -0.3536    4.6161 N.am      1 <0>         0.0000
     18 N3          1.1743   -0.0714    3.3469 N.am      1 <0>         0.0000
     19 O1          2.6215    0.5492    5.6056 O.2       1 <0>         0.0000
     20 O2          2.2555   -2.1109    3.1269 O.2       1 <0>         0.0000
     21 O3          3.2186   -1.5159    0.7230 O.3       1 <0>         0.0000
     22 S1          1.0200    0.9781   -3.6711 S.3       1 <0>         0.0000
     23 Cl1        -1.5550   -2.9781    8.6304 Cl        1 <0>         0.0000
     24 H1          1.1323    0.7244   10.2624 H         1 <0>         0.0000
     25 H2          2.0556    1.2581    8.0346 H         1 <0>         0.0000
     26 H3         -0.4608   -1.1402   10.5387 H         1 <0>         0.0000
     27 H4         -0.2200   -1.9669    6.3167 H         1 <0>         0.0000
     28 H5         -0.2418   -0.7988   -5.6457 H         1 <0>         0.0000
     29 H6          0.4667   -2.3574   -5.2167 H         1 <0>         0.0000
     30 H7         -0.5235   -1.4725   -4.0365 H         1 <0>         0.0000
     31 H8          2.0637    0.1071   -6.2789 H         1 <0>         0.0000
     32 H9          2.8077   -1.4375   -5.8596 H         1 <0>         0.0000
     33 H10         3.3894    0.0650   -5.1112 H         1 <0>         0.0000
     34 H11         2.1631    1.1018   -0.9736 H         1 <0>         0.0000
     35 H12         2.2520   -0.5707   -1.4824 H         1 <0>         0.0000
     36 H13        -0.2073    1.2295   -1.6408 H         1 <0>         0.0000
     37 H14        -0.1907   -0.4501   -2.1649 H         1 <0>         0.0000
     38 H15         2.9484    0.3859    1.4229 H         1 <0>         0.0000
     39 H16         0.5249    0.4957    0.8291 H         1 <0>         0.0000
     40 H17         1.9240   -1.2177   -3.5214 H         1 <0>         0.0000
     41 H18        -0.4842   -1.3249   -0.2178 H         1 <0>         0.0000
     42 H19         0.0690   -1.7492    1.2550 H         1 <0>         0.0000
     43 H20        -0.1619   -0.8097    4.7623 H         1 <0>         0.0000
     44 H21         0.9480    0.8148    2.9078 H         1 <0>         0.0000
     45 H22         2.7041   -2.3378    0.6655 H         1 <0>         0.0000
@<TRIPOS>BOND
     1    1    2 ar
     2    1    3 ar
     3    2    5 ar
     4    3    6 ar
     5    4    5 ar
     6    4    6 ar
     7    5    7 1
     8    6   23 1
     9    7   17 am
    10    7   19 2
    11    8   13 1
    12    8   18 am
    13    8   20 2
    14    9   15 1
    15   10   15 1
    16   11   12 1
    17   11   14 1
    18   12   22 1
    19   13   14 1
    20   13   21 1
    21   14   16 1
    22   15   22 1
    23   17   18 1
    24    1   24 1
    25    2   25 1
    26    3   26 1
    27    4   27 1
    28    9   28 1
    29    9   29 1
    30    9   30 1
    31   10   31 1
    32   10   32 1
    33   10   33 1
    34   11   34 1
    35   11   35 1
    36   12   36 1
    37   12   37 1
    38   13   38 1
    39   14   39 1
    40   15   40 1
    41   16   41 1
    42   16   42 1
    43   17   43 1
    44   18   44 1
    45   21   45 1
@<TRIPOS>MOLECULE
LIGAND
   45    45     0     0     0
SMALL
NO_CHARGES

@<TRIPOS>ATOM
      1 C1         -0.9982   -4.7984    7.0345 C.ar      1 <0>         0.0000
      2 C2         -0.5646   -4.1991    5.8520 C.ar      1 <0>         0.0000
      3 C3         -1.8801   -4.1214    7.8770 C.ar      1 <0>         0.0000
      4 C4         -1.8946   -2.2457    6.3543 C.ar      1 <0>         0.0000
      5 C5         -1.0128   -2.9227    5.5119 C.ar      1 <0>         0.0000
      6 C6         -2.3282   -2.8450    7.5369 C.ar      1 <0>         0.0000
      7 C7         -0.5498   -2.2848    4.2523 C.2       1 <0>         0.0000
      8 C8          1.9325   -1.0133    2.6768 C.2       1 <0>         0.0000
      9 C9         -3.5456    2.3208    3.0565 C.3       1 <0>         0.0000
     10 C10        -4.0220    0.6377    1.2453 C.3       1 <0>         0.0000
     11 C11         0.2195    0.8307    0.9188 C.3       1 <0>         0.0000
     12 C12        -1.0001    1.1700    0.0549 C.3       1 <0>         0.0000
     13 C13         2.3649   -0.5352    1.2935 C.3       1 <0>         0.0000
     14 C14         1.1534   -0.2750    0.3710 C.3       1 <0>         0.0000
     15 C15        -2.9459    1.4397    1.9673 C.3       1 <0>         0.0000
     16 N1          1.6681    0.0834   -0.9557 N.3       1 <0>         0.0000
     17 N2          0.6851   -2.6985    3.7909 N.am      1 <0>         0.0000
     18 N3          1.1665   -2.1628    2.6216 N.am      1 <0>         0.0000
     19 O1         -1.2703   -1.4609    3.6944 O.2       1 <0>         0.0000
     20 O2          2.2299   -0.4108    3.7066 O.2       1 <0>         0.0000
     21 O3          3.2186   -1.5159    0.7230 O.3       1 <0>         0.0000
     22 S1         -2.0492    2.4644    0.7791 S.3       1 <0>         0.0000
     23 Cl1        -3.4168   -2.0104    8.5766 Cl        1 <0>         0.0000
     24 H1         -0.6495   -5.7923    7.2990 H         1 <0>         0.0000
     25 H2          0.1227   -4.7366    5.2037 H         1 <0>         0.0000
     26 H3         -2.2094   -4.6010    8.7951 H         1 <0>         0.0000
     27 H4         -2.2430   -1.2503    6.0862 H         1 <0>         0.0000
     28 H5         -4.2705    3.0197    2.6246 H         1 <0>         0.0000
     29 H6         -4.0763    1.7229    3.8059 H         1 <0>         0.0000
     30 H7         -2.7806    2.9152    3.5690 H         1 <0>         0.0000
     31 H8         -4.7543    1.3108    0.7855 H         1 <0>         0.0000
     32 H9         -4.5673   -0.0125    1.9385 H         1 <0>         0.0000
     33 H10        -3.6015    0.0146    0.4477 H         1 <0>         0.0000
     34 H11        -0.1531    0.5335    1.9082 H         1 <0>         0.0000
     35 H12         0.7975    1.7493    1.0822 H         1 <0>         0.0000
     36 H13        -1.6176    0.2727   -0.0585 H         1 <0>         0.0000
     37 H14        -0.7009    1.4813   -0.9501 H         1 <0>         0.0000
     38 H15         2.9484    0.3859    1.4229 H         1 <0>         0.0000
     39 H16         0.5915   -1.2082    0.2610 H         1 <0>         0.0000
     40 H17        -2.2253    0.7496    2.4190 H         1 <0>         0.0000
     41 H18         0.8845    0.1717   -1.5934 H         1 <0>         0.0000
     42 H19         2.2416   -0.6802   -1.2969 H         1 <0>         0.0000
     43 H20         1.2257   -3.3847    4.3060 H         1 <0>         0.0000
     44 H21         0.9630   -2.6038    1.7309 H         1 <0>         0.0000
     45 H22         2.7041   -2.3378    0.6655 H         1 <0>         0.0000
@<TRIPOS>BOND
     1    1    2 ar
     2    1    3 ar
     3    2    5 ar
     4    3    6 ar
     5    4    5 ar
     6    4    6 ar
     7    5    7 1
     8    6   23 1
     9    7   17 am
    10    7   19 2
    11    8   13 1
    12    8   18 am
    13    8   20 2
    14    9   15 1
    15   10   15 1
    16   11   12 1
    17   11   14 1
    18   12   22 1
    19   13   14 1
    20   13   21 1
    21   14   16 1
    22   15   22 1
    23   17   18 1
    24    1   24 1
    25    2   25 1
    26    3   26 1
    27    4   27 1
    28    9   28 1
    29    9   29 1
    30    9   30 1
    31   10   31 1
    32   10   32 1
    33   10   33 1
    34   11   34 1
    35   11   35 1
    36   12   36 1
    37   12   37 1
    38   13   38 1
    39   14   39 1
    40   15   40 1
    41   16   41 1
    42   16   42 1
    43   17   43 1
    44   18   44 1
    45   21   45 1
@<TRIPOS>MOLECULE
LIGAND
   45    45     0     0     0
SMALL
NO_CHARGES

@<TRIPOS>ATOM
      1 C1          2.2466   -2.5526    8.8826 C.ar      1 <0>         0.0000
      2 C2          2.5475   -2.1101    7.5945 C.ar      1 <0>         0.0000
      3 C3          2.1624   -1.6379    9.9324 C.ar      1 <0>         0.0000
      4 C4          2.6802    0.1617    8.4058 C.ar      1 <0>         0.0000
      5 C5          2.7643   -0.7530    7.3561 C.ar      1 <0>         0.0000
      6 C6          2.3792   -0.2808    9.6940 C.ar      1 <0>         0.0000
      7 C7          3.0854   -0.2826    5.9837 C.2       1 <0>         0.0000
      8 C8          1.9325   -1.0133    2.6768 C.2       1 <0>         0.0000
      9 C9         -3.5456    2.3208    3.0565 C.3       1 <0>         0.0000
     10 C10        -4.0220    0.6377    1.2453 C.3       1 <0>         0.0000
     11 C11         0.2195    0.8307    0.9188 C.3       1 <0>         0.0000
     12 C12        -1.0001    1.1700    0.0549 C.3       1 <0>         0.0000
     13 C13         2.3649   -0.5352    1.2935 C.3       1 <0>         0.0000
     14 C14         1.1534   -0.2750    0.3710 C.3       1 <0>         0.0000
     15 C15        -2.9459    1.4397    1.9673 C.3       1 <0>         0.0000
     16 N1          1.6681    0.0834   -0.9557 N.3       1 <0>         0.0000
     17 N2          2.6023   -1.0670    4.9540 N.am      1 <0>         0.0000
     18 N3          2.8469   -0.6810    3.6590 N.am      1 <0>         0.0000
     19 O1          3.7293    0.7533    5.8374 O.2       1 <0>         0.0000
     20 O2          0.8915   -1.6405    2.8632 O.2       1 <0>         0.0000
     21 O3          3.2186   -1.5159    0.7230 O.3       1 <0>         0.0000
     22 S1         -2.0492    2.4644    0.7791 S.3       1 <0>         0.0000
     23 Cl1         2.2747    0.8474   10.9897 Cl        1 <0>         0.0000
     24 H1          2.0776   -3.6092    9.0680 H         1 <0>         0.0000
     25 H2          2.6105   -2.8325    6.7847 H         1 <0>         0.0000
     26 H3          1.9271   -1.9973   10.9308 H         1 <0>         0.0000
     27 H4          2.8492    1.2199    8.2168 H         1 <0>         0.0000
     28 H5         -4.2705    3.0197    2.6246 H         1 <0>         0.0000
     29 H6         -4.0763    1.7229    3.8059 H         1 <0>         0.0000
     30 H7         -2.7806    2.9152    3.5690 H         1 <0>         0.0000
     31 H8         -4.7543    1.3108    0.7855 H         1 <0>         0.0000
     32 H9         -4.5673   -0.0125    1.9385 H         1 <0>         0.0000
     33 H10        -3.6015    0.0146    0.4477 H         1 <0>         0.0000
     34 H11        -0.1531    0.5335    1.9082 H         1 <0>         0.0000
     35 H12         0.7975    1.7493    1.0822 H         1 <0>         0.0000
     36 H13        -1.6176    0.2727   -0.0585 H         1 <0>         0.0000
     37 H14        -0.7009    1.4813   -0.9501 H         1 <0>         0.0000
     38 H15         2.9484    0.3859    1.4229 H         1 <0>         0.0000
     39 H16         0.5915   -1.2082    0.2610 H         1 <0>         0.0000
     40 H17        -2.2253    0.7496    2.4190 H         1 <0>         0.0000
     41 H18         0.8845    0.1717   -1.5934 H         1 <0>         0.0000
     42 H19         2.2416   -0.6802   -1.2969 H         1 <0>         0.0000
     43 H20         2.0769   -1.9119    5.1509 H         1 <0>         0.0000
     44 H21         3.6858   -0.1599    3.4266 H         1 <0>         0.0000
     45 H22         2.7041   -2.3378    0.6655 H         1 <0>         0.0000
@<TRIPOS>BOND
     1    1    2 ar
     2    1    3 ar
     3    2    5 ar
     4    3    6 ar
     5    4    5 ar
     6    4    6 ar
     7    5    7 1
     8    6   23 1
     9    7   17 am
    10    7   19 2
    11    8   13 1
    12    8   18 am
    13    8   20 2
    14    9   15 1
    15   10   15 1
    16   11   12 1
    17   11   14 1
    18   12   22 1
    19   13   14 1
    20   13   21 1
    21   14   16 1
    22   15   22 1
    23   17   18 1
    24    1   24 1
    25    2   25 1
    26    3   26 1
    27    4   27 1
    28    9   28 1
    29    9   29 1
    30    9   30 1
    31   10   31 1
    32   10   32 1
    33   10   33 1
    34   11   34 1
    35   11   35 1
    36   12   36 1
    37   12   37 1
    38   13   38 1
    39   14   39 1
    40   15   40 1
    41   16   41 1
    42   16   42 1
    43   17   43 1
    44   18   44 1
    45   21   45 1
@<TRIPOS>MOLECULE
LIGAND
   45    45     0     0     0
SMALL
NO_CHARGES

@<TRIPOS>ATOM
      1 C1          0.3862   -0.6315    8.9351 C.ar      1 <0>         0.0000
      2 C2          0.6829   -0.3226    7.6077 C.ar      1 <0>         0.0000
      3 C3         -0.8301   -1.2346    9.2558 C.ar      1 <0>         0.0000
      4 C4         -1.4528   -1.2197    6.9215 C.ar      1 <0>         0.0000
      5 C5         -0.2366   -0.6167    6.6009 C.ar      1 <0>         0.0000
      6 C6         -1.7496   -1.5286    8.2490 C.ar      1 <0>         0.0000
      7 C7          0.0801   -0.2867    5.1871 C.2       1 <0>         0.0000
      8 C8          1.9325   -1.0133    2.6768 C.2       1 <0>         0.0000
      9 C9          0.9992    5.4655    0.4702 C.3       1 <0>         0.0000
     10 C10         0.2949    5.8734    2.8530 C.3       1 <0>         0.0000
     11 C11         0.2195    0.8307    0.9188 C.3       1 <0>         0.0000
     12 C12         0.8590    2.2074    1.1305 C.3       1 <0>         0.0000
     13 C13         2.3649   -0.5352    1.2935 C.3       1 <0>         0.0000
     14 C14         1.1534   -0.2750    0.3710 C.3       1 <0>         0.0000
     15 C15         0.8241    4.8515    1.8540 C.3       1 <0>         0.0000
     16 N1          1.6681    0.0834   -0.9557 N.3       1 <0>         0.0000
     17 N2          1.4238   -0.2520    4.8674 N.am      1 <0>         0.0000
     18 N3          1.7877    0.0290    3.5734 N.am      1 <0>         0.0000
     19 O1         -0.8375   -0.0833    4.3961 O.2       1 <0>         0.0000
     20 O2          1.7602   -2.2018    2.9407 O.2       1 <0>         0.0000
     21 O3          3.2186   -1.5159    0.7230 O.3       1 <0>         0.0000
     22 S1         -0.3102    3.4478    1.7590 S.3       1 <0>         0.0000
     23 Cl1        -3.2499   -2.2732    8.6452 Cl        1 <0>         0.0000
     24 H1          1.1023   -0.4028    9.7188 H         1 <0>         0.0000
     25 H2          1.6339    0.1473    7.3703 H         1 <0>         0.0000
     26 H3         -1.0475   -1.4695   10.2945 H         1 <0>         0.0000
     27 H4         -2.1680   -1.4485    6.1339 H         1 <0>         0.0000
     28 H5          0.0422    5.8509    0.1009 H         1 <0>         0.0000
     29 H6          1.7019    6.3059    0.4928 H         1 <0>         0.0000
     30 H7          1.3622    4.7326   -0.2594 H         1 <0>         0.0000
     31 H8         -0.6729    6.2651    2.5204 H         1 <0>         0.0000
     32 H9          0.9758    6.7263    2.9496 H         1 <0>         0.0000
     33 H10         0.1486    5.4355    3.8470 H         1 <0>         0.0000
     34 H11        -0.6259    0.9652    0.2307 H         1 <0>         0.0000
     35 H12        -0.2197    0.5004    1.8688 H         1 <0>         0.0000
     36 H13         1.2423    2.5738    0.1722 H         1 <0>         0.0000
     37 H14         1.7108    2.1489    1.8142 H         1 <0>         0.0000
     38 H15         2.9484    0.3859    1.4229 H         1 <0>         0.0000
     39 H16         0.5915   -1.2082    0.2610 H         1 <0>         0.0000
     40 H17         1.7903    4.4730    2.2043 H         1 <0>         0.0000
     41 H18         0.8845    0.1717   -1.5934 H         1 <0>         0.0000
     42 H19         2.2416   -0.6802   -1.2969 H         1 <0>         0.0000
     43 H20         2.1281   -0.4306    5.5750 H         1 <0>         0.0000
     44 H21         1.9478    0.9869    3.2798 H         1 <0>         0.0000
     45 H22         2.7041   -2.3378    0.6655 H         1 <0>         0.0000
@<TRIPOS>BOND
     1    1    2 ar
     2    1    3 ar
     3    2    5 ar
     4    3    6 ar
     5    4    5 ar
     6    4    6 ar
     7    5    7 1
     8    6   23 1
     9    7   17 am
    10    7   19 2
    11    8   13 1
    12    8   18 am
    13    8   20 2
    14    9   15 1
    15   10   15 1
    16   11   12 1
    17   11   14 1
    18   12   22 1
    19   13   14 1
    20   13   21 1
    21   14   16 1
    22   15   22 1
    23   17   18 1
    24    1   24 1
    25    2   25 1
    26    3   26 1
    27    4   27 1
    28    9   28 1
    29    9   29 1
    30    9   30 1
    31   10   31 1
    32   10   32 1
    33   10   33 1
    34   11   34 1
    35   11   35 1
    36   12   36 1
    37   12   37 1
    38   13   38 1
    39   14   39 1
    40   15   40 1
    41   16   41 1
    42   16   42 1
    43   17   43 1
    44   18   44 1
    45   21   45 1
@<TRIPOS>MOLECULE
LIGAND
   45    45     0     0     0
SMALL
NO_CHARGES

@<TRIPOS>ATOM
      1 C1         -0.5153   -4.0016    7.6155 C.ar      1 <0>         0.0000
      2 C2         -0.0816   -3.4032    6.4326 C.ar      1 <0>         0.0000
      3 C3         -1.8803   -4.1197    7.8777 C.ar      1 <0>         0.0000
      4 C4         -2.3777   -3.0408    5.7741 C.ar      1 <0>         0.0000
      5 C5         -1.0128   -2.9227    5.5119 C.ar      1 <0>         0.0000
      6 C6         -2.8114   -3.6393    6.9570 C.ar      1 <0>         0.0000
      7 C7         -0.5498   -2.2848    4.2523 C.2       1 <0>         0.0000
      8 C8          1.9325   -1.0133    2.6768 C.2       1 <0>         0.0000
      9 C9         -3.5456    2.3208    3.0565 C.3       1 <0>         0.0000
     10 C10        -4.0220    0.6377    1.2453 C.3       1 <0>         0.0000
     11 C11         0.2195    0.8307    0.9188 C.3       1 <0>         0.0000
     12 C12        -1.0001    1.1700    0.0549 C.3       1 <0>         0.0000
     13 C13         2.3649   -0.5352    1.2935 C.3       1 <0>         0.0000
     14 C14         1.1534   -0.2750    0.3710 C.3       1 <0>         0.0000
     15 C15        -2.9459    1.4397    1.9673 C.3       1 <0>         0.0000
     16 N1          1.6681    0.0834   -0.9557 N.3       1 <0>         0.0000
     17 N2          0.6851   -2.6985    3.7909 N.am      1 <0>         0.0000
     18 N3          1.1665   -2.1628    2.6216 N.am      1 <0>         0.0000
     19 O1         -1.2703   -1.4609    3.6944 O.2       1 <0>         0.0000
     20 O2          2.2299   -0.4108    3.7066 O.2       1 <0>         0.0000
     21 O3          3.2186   -1.5159    0.7230 O.3       1 <0>         0.0000
     22 S1         -2.0492    2.4644    0.7791 S.3       1 <0>         0.0000
     23 Cl1        -4.4955   -3.7857    7.2810 Cl        1 <0>         0.0000
     24 H1          0.2098   -4.3759    8.3321 H         1 <0>         0.0000
     25 H2          0.9846   -3.3169    6.2396 H         1 <0>         0.0000
     26 H3         -2.2034   -4.5883    8.8037 H         1 <0>         0.0000
     27 H4         -3.1019   -2.6655    5.0538 H         1 <0>         0.0000
     28 H5         -4.2705    3.0197    2.6246 H         1 <0>         0.0000
     29 H6         -4.0763    1.7229    3.8059 H         1 <0>         0.0000
     30 H7         -2.7806    2.9152    3.5690 H         1 <0>         0.0000
     31 H8         -4.7543    1.3108    0.7855 H         1 <0>         0.0000
     32 H9         -4.5673   -0.0125    1.9385 H         1 <0>         0.0000
     33 H10        -3.6015    0.0146    0.4477 H         1 <0>         0.0000
     34 H11        -0.1531    0.5335    1.9082 H         1 <0>         0.0000
     35 H12         0.7975    1.7493    1.0822 H         1 <0>         0.0000
     36 H13        -1.6176    0.2727   -0.0585 H         1 <0>         0.0000
     37 H14        -0.7009    1.4813   -0.9501 H         1 <0>         0.0000
     38 H15         2.9484    0.3859    1.4229 H         1 <0>         0.0000
     39 H16         0.5915   -1.2082    0.2610 H         1 <0>         0.0000
     40 H17        -2.2253    0.7496    2.4190 H         1 <0>         0.0000
     41 H18         0.8845    0.1717   -1.5934 H         1 <0>         0.0000
     42 H19         2.2416   -0.6802   -1.2969 H         1 <0>         0.0000
     43 H20         1.2257   -3.3847    4.3060 H         1 <0>         0.0000
     44 H21         0.9630   -2.6038    1.7309 H         1 <0>         0.0000
     45 H22         2.7041   -2.3378    0.6655 H         1 <0>         0.0000
@<TRIPOS>BOND
     1    1    2 ar
     2    1    3 ar
     3    2    5 ar
     4    3    6 ar
     5    4    5 ar
     6    4    6 ar
     7    5    7 1
     8    6   23 1
     9    7   17 am
    10    7   19 2
    11    8   13 1
    12    8   18 am
    13    8   20 2
    14    9   15 1
    15   10   15 1
    16   11   12 1
    17   11   14 1
    18   12   22 1
    19   13   14 1
    20   13   21 1
    21   14   16 1
    22   15   22 1
    23   17   18 1
    24    1   24 1
    25    2   25 1
    26    3   26 1
    27    4   27 1
    28    9   28 1
    29    9   29 1
    30    9   30 1
    31   10   31 1
    32   10   32 1
    33   10   33 1
    34   11   34 1
    35   11   35 1
    36   12   36 1
    37   12   37 1
    38   13   38 1
    39   14   39 1
    40   15   40 1
    41   16   41 1
    42   16   42 1
    43   17   43 1
    44   18   44 1
    45   21   45 1
@<TRIPOS>MOLECULE
LIGAND
   45    45     0     0     0
SMALL
NO_CHARGES

@<TRIPOS>ATOM
      1 C1         -0.8688   -1.7203    8.2676 C.ar      1 <0>         0.0000
      2 C2         -0.4721   -1.3756    6.9756 C.ar      1 <0>         0.0000
      3 C3         -1.6746   -0.8524    9.0047 C.ar      1 <0>         0.0000
      4 C4         -1.6869    0.7048    7.1576 C.ar      1 <0>         0.0000
      5 C5         -0.8811   -0.1631    6.4206 C.ar      1 <0>         0.0000
      6 C6         -2.0836    0.3601    8.4497 C.ar      1 <0>         0.0000
      7 C7         -0.4576    0.2036    5.0443 C.2       1 <0>         0.0000
      8 C8          1.9325   -1.0133    2.6768 C.2       1 <0>         0.0000
      9 C9         -1.2188    2.4860   -4.0715 C.3       1 <0>         0.0000
     10 C10        -0.4191    1.0621   -5.9881 C.3       1 <0>         0.0000
     11 C11         1.5761    0.1765   -1.0474 C.3       1 <0>         0.0000
     12 C12         0.4360    0.4372   -2.0380 C.3       1 <0>         0.0000
     13 C13         2.3649   -0.5352    1.2935 C.3       1 <0>         0.0000
     14 C14         1.1534   -0.2750    0.3710 C.3       1 <0>         0.0000
     15 C15        -0.5876    1.1594   -4.4766 C.3       1 <0>         0.0000
     16 N1          0.3597   -1.5080    0.3138 N.3       1 <0>         0.0000
     17 N2          0.7320   -0.3536    4.6161 N.am      1 <0>         0.0000
     18 N3          1.1743   -0.0714    3.3469 N.am      1 <0>         0.0000
     19 O1         -1.1696    0.9461    4.3728 O.2       1 <0>         0.0000
     20 O2          2.2555   -2.1109    3.1269 O.2       1 <0>         0.0000
     21 O3          3.2186   -1.5159    0.7230 O.3       1 <0>         0.0000
     22 S1          1.0200    0.9781   -3.6711 S.3       1 <0>         0.0000
     23 Cl1        -3.0783    1.4303    9.3596 Cl        1 <0>         0.0000
     24 H1         -0.5505   -2.6646    8.6994 H         1 <0>         0.0000
     25 H2          0.1559   -2.0601    6.4111 H         1 <0>         0.0000
     26 H3         -1.9758   -1.1345   10.0103 H         1 <0>         0.0000
     27 H4         -2.0049    1.6499    6.7219 H         1 <0>         0.0000
     28 H5         -0.5957    3.3223   -4.4074 H         1 <0>         0.0000
     29 H6         -2.2073    2.6127   -4.5270 H         1 <0>         0.0000
     30 H7         -1.3270    2.5723   -2.9843 H         1 <0>         0.0000
     31 H8          0.2163    1.8766   -6.3535 H         1 <0>         0.0000
     32 H9         -1.3827    1.1446   -6.5030 H         1 <0>         0.0000
     33 H10         0.0512    0.1184   -6.2872 H         1 <0>         0.0000
     34 H11         2.1631    1.1018   -0.9736 H         1 <0>         0.0000
     35 H12         2.2520   -0.5707   -1.4824 H         1 <0>         0.0000
     36 H13        -0.2073    1.2295   -1.6408 H         1 <0>         0.0000
     37 H14        -0.1907   -0.4501   -2.1649 H         1 <0>         0.0000
     38 H15         2.9484    0.3859    1.4229 H         1 <0>         0.0000
     39 H16         0.5249    0.4957    0.8291 H         1 <0>         0.0000
     40 H17        -1.2247    0.3378   -4.1321 H         1 <0>         0.0000
     41 H18        -0.4842   -1.3249   -0.2178 H         1 <0>         0.0000
     42 H19         0.0690   -1.7492    1.2550 H         1 <0>         0.0000
     43 H20         1.2684   -0.9594    5.2274 H         1 <0>         0.0000
     44 H21         0.9480    0.8148    2.9078 H         1 <0>         0.0000
     45 H22         2.7041   -2.3378    0.6655 H         1 <0>         0.0000
@<TRIPOS>BOND
     1    1    2 ar
     2    1    3 ar
     3    2    5 ar
     4    3    6 ar
     5    4    5 ar
     6    4    6 ar
     7    5    7 1
     8    6   23 1
     9    7   17 am
    10    7   19 2
    11    8   13 1
    12    8   18 am
    13    8   20 2
    14    9   15 1
    15   10   15 1
    16   11   12 1
    17   11   14 1
    18   12   22 1
    19   13   14 1
    20   13   21 1
    21   14   16 1
    22   15   22 1
    23   17   18 1
    24    1   24 1
    25    2   25 1
    26    3   26 1
    27    4   27 1
    28    9   28 1
    29    9   29 1
    30    9   30 1
    31   10   31 1
    32   10   32 1
    33   10   33 1
    34   11   34 1
    35   11   35 1
    36   12   36 1
    37   12   37 1
    38   13   38 1
    39   14   39 1
    40   15   40 1
    41   16   41 1
    42   16   42 1
    43   17   43 1
    44   18   44 1
    45   21   45 1
@<TRIPOS>MOLECULE
LIGAND
   45    45     0     0     0
SMALL
NO_CHARGES

@<TRIPOS>ATOM
      1 C1         -2.0859    0.3620    8.4478 C.ar      1 <0>         0.0000
      2 C2         -1.6873    0.7057    7.1561 C.ar      1 <0>         0.0000
      3 C3         -1.6782   -0.8505    9.0041 C.ar      1 <0>         0.0000
      4 C4         -0.4734   -1.3755    6.9768 C.ar      1 <0>         0.0000
      5 C5         -0.8811   -0.1631    6.4206 C.ar      1 <0>         0.0000
      6 C6         -0.8720   -1.7192    8.2686 C.ar      1 <0>         0.0000
      7 C7         -0.4576    0.2036    5.0443 C.2       1 <0>         0.0000
      8 C8          1.9325   -1.0133    2.6768 C.2       1 <0>         0.0000
      9 C9          1.1606    4.0721   -2.8209 C.3       1 <0>         0.0000
     10 C10         1.1711    2.6068   -4.8686 C.3       1 <0>         0.0000
     11 C11         1.5761    0.1765   -1.0474 C.3       1 <0>         0.0000
     12 C12         2.3784    1.4800   -1.1273 C.3       1 <0>         0.0000
     13 C13         2.3649   -0.5352    1.2935 C.3       1 <0>         0.0000
     14 C14         1.1534   -0.2750    0.3710 C.3       1 <0>         0.0000
     15 C15         1.2741    2.6470   -3.3486 C.3       1 <0>         0.0000
     16 N1          0.3597   -1.5080    0.3138 N.3       1 <0>         0.0000
     17 N2          0.7320   -0.3536    4.6161 N.am      1 <0>         0.0000
     18 N3          1.1743   -0.0714    3.3469 N.am      1 <0>         0.0000
     19 O1         -1.1696    0.9461    4.3728 O.2       1 <0>         0.0000
     20 O2          2.2555   -2.1109    3.1269 O.2       1 <0>         0.0000
     21 O3          3.2186   -1.5159    0.7230 O.3       1 <0>         0.0000
     22 S1          2.8465    1.9264   -2.8249 S.3       1 <0>         0.0000
     23 Cl1        -0.3688   -3.2149    8.9559 Cl        1 <0>         0.0000
     24 H1         -2.7133    1.0387    9.0204 H         1 <0>         0.0000
     25 H2         -2.0115    1.6532    6.7333 H         1 <0>         0.0000
     26 H3         -1.9966   -1.1048   10.0118 H         1 <0>         0.0000
     27 H4          0.1559   -2.0511    6.4010 H         1 <0>         0.0000
     28 H5          1.9558    4.6980   -3.2410 H         1 <0>         0.0000
     29 H6          0.2046    4.5270   -3.1034 H         1 <0>         0.0000
     30 H7          1.2520    4.1126   -1.7295 H         1 <0>         0.0000
     31 H8          1.9665    3.2101   -5.3202 H         1 <0>         0.0000
     32 H9          0.2154    3.0160   -5.2145 H         1 <0>         0.0000
     33 H10         1.2700    1.5872   -5.2582 H         1 <0>         0.0000
     34 H11         2.1843   -0.6108   -1.5125 H         1 <0>         0.0000
     35 H12         0.6847    0.2765   -1.6798 H         1 <0>         0.0000
     36 H13         3.3029    1.3655   -0.5514 H         1 <0>         0.0000
     37 H14         1.8267    2.3139   -0.6838 H         1 <0>         0.0000
     38 H15         2.9484    0.3859    1.4229 H         1 <0>         0.0000
     39 H16         0.5249    0.4957    0.8291 H         1 <0>         0.0000
     40 H17         0.4716    2.0389   -2.9175 H         1 <0>         0.0000
     41 H18        -0.4842   -1.3249   -0.2178 H         1 <0>         0.0000
     42 H19         0.0690   -1.7492    1.2550 H         1 <0>         0.0000
     43 H20         1.2684   -0.9594    5.2274 H         1 <0>         0.0000
     44 H21         0.9480    0.8148    2.9078 H         1 <0>         0.0000
     45 H22         2.7041   -2.3378    0.6655 H         1 <0>         0.0000
@<TRIPOS>BOND
     1    1    2 ar
     2    1    3 ar
     3    2    5 ar
     4    3    6 ar
     5    4    5 ar
     6    4    6 ar
     7    5    7 1
     8    6   23 1
     9    7   17 am
    10    7   19 2
    11    8   13 1
    12    8   18 am
    13    8   20 2
    14    9   15 1
    15   10   15 1
    16   11   12 1
    17   11   14 1
    18   12   22 1
    19   13   14 1
    20   13   21 1
    21   14   16 1
    22   15   22 1
    23   17   18 1
    24    1   24 1
    25    2   25 1
    26    3   26 1
    27    4   27 1
    28    9   28 1
    29    9   29 1
    30    9   30 1
    31   10   31 1
    32   10   32 1
    33   10   33 1
    34   11   34 1
    35   11   35 1
    36   12   36 1
    37   12   37 1
    38   13   38 1
    39   14   39 1
    40   15   40 1
    41   16   41 1
    42   16   42 1
    43   17   43 1
    44   18   44 1
    45   21   45 1
@<TRIPOS>MOLECULE
LIGAND
   45    45     0     0     0
SMALL
NO_CHARGES

@<TRIPOS>ATOM
      1 C1         -0.4443   -1.6789    8.4406 C.ar      1 <0>         0.0000
      2 C2          0.0752   -1.3786    7.1814 C.ar      1 <0>         0.0000
      3 C3         -0.0644   -0.9236    9.5500 C.ar      1 <0>         0.0000
      4 C4          1.3546    0.4323    8.1411 C.ar      1 <0>         0.0000
      5 C5          0.9746   -0.3231    7.0316 C.ar      1 <0>         0.0000
      6 C6          0.8350    0.1320    9.4003 C.ar      1 <0>         0.0000
      7 C7          1.5280   -0.0043    5.6900 C.2       1 <0>         0.0000
      8 C8          1.9325   -1.0133    2.6768 C.2       1 <0>         0.0000
      9 C9          1.1606    4.0721   -2.8209 C.3       1 <0>         0.0000
     10 C10         1.1711    2.6068   -4.8686 C.3       1 <0>         0.0000
     11 C11         1.5761    0.1765   -1.0474 C.3       1 <0>         0.0000
     12 C12         2.3784    1.4800   -1.1273 C.3       1 <0>         0.0000
     13 C13         2.3649   -0.5352    1.2935 C.3       1 <0>         0.0000
     14 C14         1.1534   -0.2750    0.3710 C.3       1 <0>         0.0000
     15 C15         1.2741    2.6470   -3.3486 C.3       1 <0>         0.0000
     16 N1          0.3597   -1.5080    0.3138 N.3       1 <0>         0.0000
     17 N2          0.7320   -0.3536    4.6161 N.am      1 <0>         0.0000
     18 N3          1.1743   -0.0714    3.3469 N.am      1 <0>         0.0000
     19 O1          2.6215    0.5492    5.6056 O.2       1 <0>         0.0000
     20 O2          2.2555   -2.1109    3.1269 O.2       1 <0>         0.0000
     21 O3          3.2186   -1.5159    0.7230 O.3       1 <0>         0.0000
     22 S1          2.8465    1.9264   -2.8249 S.3       1 <0>         0.0000
     23 Cl1         1.3030    1.0639   10.7696 Cl        1 <0>         0.0000
     24 H1         -1.1448   -2.5006    8.5569 H         1 <0>         0.0000
     25 H2         -0.2283   -1.9745    6.3244 H         1 <0>         0.0000
     26 H3         -0.4775   -1.1693   10.5250 H         1 <0>         0.0000
     27 H4          2.0560    1.2555    8.0212 H         1 <0>         0.0000
     28 H5          1.9558    4.6980   -3.2410 H         1 <0>         0.0000
     29 H6          0.2046    4.5270   -3.1034 H         1 <0>         0.0000
     30 H7          1.2520    4.1126   -1.7295 H         1 <0>         0.0000
     31 H8          1.9665    3.2101   -5.3202 H         1 <0>         0.0000
     32 H9          0.2154    3.0160   -5.2145 H         1 <0>         0.0000
     33 H10         1.2700    1.5872   -5.2582 H         1 <0>         0.0000
     34 H11         2.1843   -0.6108   -1.5125 H         1 <0>         0.0000
     35 H12         0.6847    0.2765   -1.6798 H         1 <0>         0.0000
     36 H13         3.3029    1.3655   -0.5514 H         1 <0>         0.0000
     37 H14         1.8267    2.3139   -0.6838 H         1 <0>         0.0000
     38 H15         2.9484    0.3859    1.4229 H         1 <0>         0.0000
     39 H16         0.5249    0.4957    0.8291 H         1 <0>         0.0000
     40 H17         0.4716    2.0389   -2.9175 H         1 <0>         0.0000
     41 H18        -0.4842   -1.3249   -0.2178 H         1 <0>         0.0000
     42 H19         0.0690   -1.7492    1.2550 H         1 <0>         0.0000
     43 H20        -0.1619   -0.8097    4.7623 H         1 <0>         0.0000
     44 H21         0.9480    0.8148    2.9078 H         1 <0>         0.0000
     45 H22         2.7041   -2.3378    0.6655 H         1 <0>         0.0000
@<TRIPOS>BOND
     1    1    2 ar
     2    1    3 ar
     3    2    5 ar
     4    3    6 ar
     5    4    5 ar
     6    4    6 ar
     7    5    7 1
     8    6   23 1
     9    7   17 am
    10    7   19 2
    11    8   13 1
    12    8   18 am
    13    8   20 2
    14    9   15 1
    15   10   15 1
    16   11   12 1
    17   11   14 1
    18   12   22 1
    19   13   14 1
    20   13   21 1
    21   14   16 1
    22   15   22 1
    23   17   18 1
    24    1   24 1
    25    2   25 1
    26    3   26 1
    27    4   27 1
    28    9   28 1
    29    9   29 1
    30    9   30 1
    31   10   31 1
    32   10   32 1
    33   10   33 1
    34   11   34 1
    35   11   35 1
    36   12   36 1
    37   12   37 1
    38   13   38 1
    39   14   39 1
    40   15   40 1
    41   16   41 1
    42   16   42 1
    43   17   43 1
    44   18   44 1
    45   21   45 1
@<TRIPOS>MOLECULE
LIGAND
   45    45     0     0     0
SMALL
NO_CHARGES

@<TRIPOS>ATOM
      1 C1          1.3177   -0.8505    9.3642 C.ar      1 <0>         0.0000
      2 C2          1.8364   -0.5518    8.1043 C.ar      1 <0>         0.0000
      3 C3         -0.0628   -0.9206    9.5514 C.ar      1 <0>         0.0000
      4 C4         -0.4059   -0.3930    7.2188 C.ar      1 <0>         0.0000
      5 C5          0.9746   -0.3231    7.0316 C.ar      1 <0>         0.0000
      6 C6         -0.9246   -0.6918    8.4788 C.ar      1 <0>         0.0000
      7 C7          1.5280   -0.0043    5.6900 C.2       1 <0>         0.0000
      8 C8          1.9325   -1.0133    2.6768 C.2       1 <0>         0.0000
      9 C9          0.2249   -1.3614   -4.8293 C.3       1 <0>         0.0000
     10 C10         2.4955   -0.4691   -5.4530 C.3       1 <0>         0.0000
     11 C11         1.5761    0.1765   -1.0474 C.3       1 <0>         0.0000
     12 C12         0.4360    0.4372   -2.0380 C.3       1 <0>         0.0000
     13 C13         2.3649   -0.5352    1.2935 C.3       1 <0>         0.0000
     14 C14         1.1534   -0.2750    0.3710 C.3       1 <0>         0.0000
     15 C15         1.4734   -0.6402   -4.3356 C.3       1 <0>         0.0000
     16 N1          0.3597   -1.5080    0.3138 N.3       1 <0>         0.0000
     17 N2          0.7320   -0.3536    4.6161 N.am      1 <0>         0.0000
     18 N3          1.1743   -0.0714    3.3469 N.am      1 <0>         0.0000
     19 O1          2.6215    0.5492    5.6056 O.2       1 <0>         0.0000
     20 O2          2.2555   -2.1109    3.1269 O.2       1 <0>         0.0000
     21 O3          3.2186   -1.5159    0.7230 O.3       1 <0>         0.0000
     22 S1          1.0200    0.9781   -3.6711 S.3       1 <0>         0.0000
     23 Cl1        -2.6279   -0.7789    8.7104 Cl        1 <0>         0.0000
     24 H1          1.9889   -1.0289   10.1992 H         1 <0>         0.0000
     25 H2          2.9139   -0.5000    7.9709 H         1 <0>         0.0000
     26 H3         -0.4524   -1.1543   10.5388 H         1 <0>         0.0000
     27 H4         -1.0758   -0.2147    6.3801 H         1 <0>         0.0000
     28 H5         -0.2418   -0.7988   -5.6457 H         1 <0>         0.0000
     29 H6          0.4667   -2.3574   -5.2167 H         1 <0>         0.0000
     30 H7         -0.5235   -1.4725   -4.0365 H         1 <0>         0.0000
     31 H8          2.0637    0.1071   -6.2789 H         1 <0>         0.0000
     32 H9          2.8077   -1.4375   -5.8596 H         1 <0>         0.0000
     33 H10         3.3894    0.0650   -5.1112 H         1 <0>         0.0000
     34 H11         2.1631    1.1018   -0.9736 H         1 <0>         0.0000
     35 H12         2.2520   -0.5707   -1.4824 H         1 <0>         0.0000
     36 H13        -0.2073    1.2295   -1.6408 H         1 <0>         0.0000
     37 H14        -0.1907   -0.4501   -2.1649 H         1 <0>         0.0000
     38 H15         2.9484    0.3859    1.4229 H         1 <0>         0.0000
     39 H16         0.5249    0.4957    0.8291 H         1 <0>         0.0000
     40 H17         1.9240   -1.2177   -3.5214 H         1 <0>         0.0000
     41 H18        -0.4842   -1.3249   -0.2178 H         1 <0>         0.0000
     42 H19         0.0690   -1.7492    1.2550 H         1 <0>         0.0000
     43 H20        -0.1619   -0.8097    4.7623 H         1 <0>         0.0000
     44 H21         0.9480    0.8148    2.9078 H         1 <0>         0.0000
     45 H22         2.7041   -2.3378    0.6655 H         1 <0>         0.0000
@<TRIPOS>BOND
     1    1    2 ar
     2    1    3 ar
     3    2    5 ar
     4    3    6 ar
     5    4    5 ar
     6    4    6 ar
     7    5    7 1
     8    6   23 1
     9    7   17 am
    10    7   19 2
    11    8   13 1
    12    8   18 am
    13    8   20 2
    14    9   15 1
    15   10   15 1
    16   11   12 1
    17   11   14 1
    18   12   22 1
    19   13   14 1
    20   13   21 1
    21   14   16 1
    22   15   22 1
    23   17   18 1
    24    1   24 1
    25    2   25 1
    26    3   26 1
    27    4   27 1
    28    9   28 1
    29    9   29 1
    30    9   30 1
    31   10   31 1
    32   10   32 1
    33   10   33 1
    34   11   34 1
    35   11   35 1
    36   12   36 1
    37   12   37 1
    38   13   38 1
    39   14   39 1
    40   15   40 1
    41   16   41 1
    42   16   42 1
    43   17   43 1
    44   18   44 1
    45   21   45 1
@<TRIPOS>MOLECULE
LIGAND
   45    45     0     0     0
SMALL
NO_CHARGES

@<TRIPOS>ATOM
      1 C1          0.8357    0.1354    9.3996 C.ar      1 <0>         0.0000
      2 C2          1.3551    0.4336    8.1400 C.ar      1 <0>         0.0000
      3 C3         -0.0643   -0.9196    9.5510 C.ar      1 <0>         0.0000
      4 C4          0.0746   -1.3780    7.1830 C.ar      1 <0>         0.0000
      5 C5          0.9746   -0.3231    7.0316 C.ar      1 <0>         0.0000
      6 C6         -0.4448   -1.6762    8.4427 C.ar      1 <0>         0.0000
      7 C7          1.5280   -0.0043    5.6900 C.2       1 <0>         0.0000
      8 C8          1.9325   -1.0133    2.6768 C.2       1 <0>         0.0000
      9 C9          5.1418    3.1300   -1.9709 C.3       1 <0>         0.0000
     10 C10         3.7665    4.3432   -3.6963 C.3       1 <0>         0.0000
     11 C11         1.5761    0.1765   -1.0474 C.3       1 <0>         0.0000
     12 C12         2.3784    1.4800   -1.1273 C.3       1 <0>         0.0000
     13 C13         2.3649   -0.5352    1.2935 C.3       1 <0>         0.0000
     14 C14         1.1534   -0.2750    0.3710 C.3       1 <0>         0.0000
     15 C15         3.7349    3.4566   -2.4572 C.3       1 <0>         0.0000
     16 N1          0.3597   -1.5080    0.3138 N.3       1 <0>         0.0000
     17 N2          0.7320   -0.3536    4.6161 N.am      1 <0>         0.0000
     18 N3          1.1743   -0.0714    3.3469 N.am      1 <0>         0.0000
     19 O1          2.6215    0.5492    5.6056 O.2       1 <0>         0.0000
     20 O2          2.2555   -2.1109    3.1269 O.2       1 <0>         0.0000
     21 O3          3.2186   -1.5159    0.7230 O.3       1 <0>         0.0000
     22 S1          2.8465    1.9264   -2.8249 S.3       1 <0>         0.0000
     23 Cl1        -1.5550   -2.9781    8.6304 Cl        1 <0>         0.0000
     24 H1          1.1323    0.7244   10.2624 H         1 <0>         0.0000
     25 H2          2.0556    1.2581    8.0346 H         1 <0>         0.0000
     26 H3         -0.4608   -1.1402   10.5387 H         1 <0>         0.0000
     27 H4         -0.2200   -1.9669    6.3167 H         1 <0>         0.0000
     28 H5          5.7052    2.6127   -2.7555 H         1 <0>         0.0000
     29 H6          5.6972    4.0398   -1.7170 H         1 <0>         0.0000
     30 H7          5.1290    2.4774   -1.0905 H         1 <0>         0.0000
     31 H8          4.3088    3.8446   -4.5075 H         1 <0>         0.0000
     32 H9          4.2791    5.2906   -3.4959 H         1 <0>         0.0000
     33 H10         2.7588    4.5681   -4.0639 H         1 <0>         0.0000
     34 H11         2.1843   -0.6108   -1.5125 H         1 <0>         0.0000
     35 H12         0.6847    0.2765   -1.6798 H         1 <0>         0.0000
     36 H13         3.3029    1.3655   -0.5514 H         1 <0>         0.0000
     37 H14         1.8267    2.3139   -0.6838 H         1 <0>         0.0000
     38 H15         2.9484    0.3859    1.4229 H         1 <0>         0.0000
     39 H16         0.5249    0.4957    0.8291 H         1 <0>         0.0000
     40 H17         3.1895    3.9723   -1.6597 H         1 <0>         0.0000
     41 H18        -0.4842   -1.3249   -0.2178 H         1 <0>         0.0000
     42 H19         0.0690   -1.7492    1.2550 H         1 <0>         0.0000
     43 H20        -0.1619   -0.8097    4.7623 H         1 <0>         0.0000
     44 H21         0.9480    0.8148    2.9078 H         1 <0>         0.0000
     45 H22         2.7041   -2.3378    0.6655 H         1 <0>         0.0000
@<TRIPOS>BOND
     1    1    2 ar
     2    1    3 ar
     3    2    5 ar
     4    3    6 ar
     5    4    5 ar
     6    4    6 ar
     7    5    7 1
     8    6   23 1
     9    7   17 am
    10    7   19 2
    11    8   13 1
    12    8   18 am
    13    8   20 2
    14    9   15 1
    15   10   15 1
    16   11   12 1
    17   11   14 1
    18   12   22 1
    19   13   14 1
    20   13   21 1
    21   14   16 1
    22   15   22 1
    23   17   18 1
    24    1   24 1
    25    2   25 1
    26    3   26 1
    27    4   27 1
    28    9   28 1
    29    9   29 1
    30    9   30 1
    31   10   31 1
    32   10   32 1
    33   10   33 1
    34   11   34 1
    35   11   35 1
    36   12   36 1
    37   12   37 1
    38   13   38 1
    39   14   39 1
    40   15   40 1
    41   16   41 1
    42   16   42 1
    43   17   43 1
    44   18   44 1
    45   21   45 1
@<TRIPOS>MOLECULE
LIGAND
   45    45     0     0     0
SMALL
NO_CHARGES

@<TRIPOS>ATOM
      1 C1         -0.9264   -0.6930    8.4760 C.ar      1 <0>         0.0000
      2 C2         -0.4061   -0.3932    7.2170 C.ar      1 <0>         0.0000
      3 C3         -0.0659   -0.9225    9.5497 C.ar      1 <0>         0.0000
      4 C4          1.8351   -0.5526    8.1053 C.ar      1 <0>         0.0000
      5 C5          0.9746   -0.3231    7.0316 C.ar      1 <0>         0.0000
      6 C6          1.3148   -0.8524    9.3643 C.ar      1 <0>         0.0000
      7 C7          1.5280   -0.0043    5.6900 C.2       1 <0>         0.0000
      8 C8          1.9325   -1.0133    2.6768 C.2       1 <0>         0.0000
      9 C9          1.1606    4.0721   -2.8209 C.3       1 <0>         0.0000
     10 C10         1.1711    2.6068   -4.8686 C.3       1 <0>         0.0000
     11 C11         1.5761    0.1765   -1.0474 C.3       1 <0>         0.0000
     12 C12         2.3784    1.4800   -1.1273 C.3       1 <0>         0.0000
     13 C13         2.3649   -0.5352    1.2935 C.3       1 <0>         0.0000
     14 C14         1.1534   -0.2750    0.3710 C.3       1 <0>         0.0000
     15 C15         1.2741    2.6470   -3.3486 C.3       1 <0>         0.0000
     16 N1          0.3597   -1.5080    0.3138 N.3       1 <0>         0.0000
     17 N2          0.7320   -0.3536    4.6161 N.am      1 <0>         0.0000
     18 N3          1.1743   -0.0714    3.3469 N.am      1 <0>         0.0000
     19 O1          2.6215    0.5492    5.6056 O.2       1 <0>         0.0000
     20 O2          2.2555   -2.1109    3.1269 O.2       1 <0>         0.0000
     21 O3          3.2186   -1.5159    0.7230 O.3       1 <0>         0.0000
     22 S1          2.8465    1.9264   -2.8249 S.3       1 <0>         0.0000
     23 Cl1         2.3759   -1.1353   10.6896 Cl        1 <0>         0.0000
     24 H1         -2.0014   -0.7472    8.6202 H         1 <0>         0.0000
     25 H2         -1.0867   -0.2164    6.3881 H         1 <0>         0.0000
     26 H3         -0.4859   -1.1551   10.5249 H         1 <0>         0.0000
     27 H4          2.9117   -0.4967    7.9578 H         1 <0>         0.0000
     28 H5          1.9558    4.6980   -3.2410 H         1 <0>         0.0000
     29 H6          0.2046    4.5270   -3.1034 H         1 <0>         0.0000
     30 H7          1.2520    4.1126   -1.7295 H         1 <0>         0.0000
     31 H8          1.9665    3.2101   -5.3202 H         1 <0>         0.0000
     32 H9          0.2154    3.0160   -5.2145 H         1 <0>         0.0000
     33 H10         1.2700    1.5872   -5.2582 H         1 <0>         0.0000
     34 H11         2.1843   -0.6108   -1.5125 H         1 <0>         0.0000
     35 H12         0.6847    0.2765   -1.6798 H         1 <0>         0.0000
     36 H13         3.3029    1.3655   -0.5514 H         1 <0>         0.0000
     37 H14         1.8267    2.3139   -0.6838 H         1 <0>         0.0000
     38 H15         2.9484    0.3859    1.4229 H         1 <0>         0.0000
     39 H16         0.5249    0.4957    0.8291 H         1 <0>         0.0000
     40 H17         0.4716    2.0389   -2.9175 H         1 <0>         0.0000
     41 H18        -0.4842   -1.3249   -0.2178 H         1 <0>         0.0000
     42 H19         0.0690   -1.7492    1.2550 H         1 <0>         0.0000
     43 H20        -0.1619   -0.8097    4.7623 H         1 <0>         0.0000
     44 H21         0.9480    0.8148    2.9078 H         1 <0>         0.0000
     45 H22         2.7041   -2.3378    0.6655 H         1 <0>         0.0000
@<TRIPOS>BOND
     1    1    2 ar
     2    1    3 ar
     3    2    5 ar
     4    3    6 ar
     5    4    5 ar
     6    4    6 ar
     7    5    7 1
     8    6   23 1
     9    7   17 am
    10    7   19 2
    11    8   13 1
    12    8   18 am
    13    8   20 2
    14    9   15 1
    15   10   15 1
    16   11   12 1
    17   11   14 1
    18   12   22 1
    19   13   14 1
    20   13   21 1
    21   14   16 1
    22   15   22 1
    23   17   18 1
    24    1   24 1
    25    2   25 1
    26    3   26 1
    27    4   27 1
    28    9   28 1
    29    9   29 1
    30    9   30 1
    31   10   31 1
    32   10   32 1
    33   10   33 1
    34   11   34 1
    35   11   35 1
    36   12   36 1
    37   12   37 1
    38   13   38 1
    39   14   39 1
    40   15   40 1
    41   16   41 1
    42   16   42 1
    43   17   43 1
    44   18   44 1
    45   21   45 1
@<TRIPOS>MOLECULE
LIGAND
   45    45     0     0     0
SMALL
NO_CHARGES

@<TRIPOS>ATOM
      1 C1          2.3780   -0.2776    9.6931 C.ar      1 <0>         0.0000
      2 C2          2.6800    0.1631    8.4046 C.ar      1 <0>         0.0000
      3 C3          2.1604   -1.6343    9.9331 C.ar      1 <0>         0.0000
      4 C4          2.5467   -2.1098    7.5961 C.ar      1 <0>         0.0000
      5 C5          2.7643   -0.7530    7.3561 C.ar      1 <0>         0.0000
      6 C6          2.2447   -2.5504    8.8846 C.ar      1 <0>         0.0000
      7 C7          3.0854   -0.2826    5.9837 C.2       1 <0>         0.0000
      8 C8          1.9325   -1.0133    2.6768 C.2       1 <0>         0.0000
      9 C9         -2.4695    4.5098    0.4722 C.3       1 <0>         0.0000
     10 C10        -0.2177    4.7761   -0.6229 C.3       1 <0>         0.0000
     11 C11         0.2195    0.8307    0.9188 C.3       1 <0>         0.0000
     12 C12         0.8590    2.2074    1.1305 C.3       1 <0>         0.0000
     13 C13         2.3649   -0.5352    1.2935 C.3       1 <0>         0.0000
     14 C14         1.1534   -0.2750    0.3710 C.3       1 <0>         0.0000
     15 C15        -1.1189    3.8600    0.1963 C.3       1 <0>         0.0000
     16 N1          1.6681    0.0834   -0.9557 N.3       1 <0>         0.0000
     17 N2          2.6023   -1.0670    4.9540 N.am      1 <0>         0.0000
     18 N3          2.8469   -0.6810    3.6590 N.am      1 <0>         0.0000
     19 O1          3.7293    0.7533    5.8374 O.2       1 <0>         0.0000
     20 O2          0.8915   -1.6405    2.8632 O.2       1 <0>         0.0000
     21 O3          3.2186   -1.5159    0.7230 O.3       1 <0>         0.0000
     22 S1         -0.3102    3.4478    1.7590 S.3       1 <0>         0.0000
     23 Cl1         1.9766   -4.2245    9.1816 Cl        1 <0>         0.0000
     24 H1          2.3127    0.4358   10.5093 H         1 <0>         0.0000
     25 H2          2.8474    1.2228    8.2300 H         1 <0>         0.0000
     26 H3          1.9260   -1.9630   10.9423 H         1 <0>         0.0000
     27 H4          2.6137   -2.8222    6.7763 H         1 <0>         0.0000
     28 H5         -2.3352    5.4486    1.0211 H         1 <0>         0.0000
     29 H6         -2.9944    4.7495   -0.4593 H         1 <0>         0.0000
     30 H7         -3.1176    3.8651    1.0767 H         1 <0>         0.0000
     31 H8         -0.0488    5.7190   -0.0908 H         1 <0>         0.0000
     32 H9         -0.6728    5.0239   -1.5883 H         1 <0>         0.0000
     33 H10         0.7629    4.3240   -0.8105 H         1 <0>         0.0000
     34 H11        -0.6259    0.9652    0.2307 H         1 <0>         0.0000
     35 H12        -0.2197    0.5004    1.8688 H         1 <0>         0.0000
     36 H13         1.2423    2.5738    0.1722 H         1 <0>         0.0000
     37 H14         1.7108    2.1489    1.8142 H         1 <0>         0.0000
     38 H15         2.9484    0.3859    1.4229 H         1 <0>         0.0000
     39 H16         0.5915   -1.2082    0.2610 H         1 <0>         0.0000
     40 H17        -1.2750    2.9249   -0.3521 H         1 <0>         0.0000
     41 H18         0.8845    0.1717   -1.5934 H         1 <0>         0.0000
     42 H19         2.2416   -0.6802   -1.2969 H         1 <0>         0.0000
     43 H20         2.0769   -1.9119    5.1509 H         1 <0>         0.0000
     44 H21         3.6858   -0.1599    3.4266 H         1 <0>         0.0000
     45 H22         2.7041   -2.3378    0.6655 H         1 <0>         0.0000
@<TRIPOS>BOND
     1    1    2 ar
     2    1    3 ar
     3    2    5 ar
     4    3    6 ar
     5    4    5 ar
     6    4    6 ar
     7    5    7 1
     8    6   23 1
     9    7   17 am
    10    7   19 2
    11    8   13 1
    12    8   18 am
    13    8   20 2
    14    9   15 1
    15   10   15 1
    16   11   12 1
    17   11   14 1
    18   12   22 1
    19   13   14 1
    20   13   21 1
    21   14   16 1
    22   15   22 1
    23   17   18 1
    24    1   24 1
    25    2   25 1
    26    3   26 1
    27    4   27 1
    28    9   28 1
    29    9   29 1
    30    9   30 1
    31   10   31 1
    32   10   32 1
    33   10   33 1
    34   11   34 1
    35   11   35 1
    36   12   36 1
    37   12   37 1
    38   13   38 1
    39   14   39 1
    40   15   40 1
    41   16   41 1
    42   16   42 1
    43   17   43 1
    44   18   44 1
    45   21   45 1
@<TRIPOS>MOLECULE
LIGAND
   45    45     0     0     0
SMALL
NO_CHARGES

@<TRIPOS>ATOM
      1 C1         -0.9798   -3.8905    7.4752 C.ar      1 <0>         0.0000
      2 C2         -0.5605   -3.3589    6.2557 C.ar      1 <0>         0.0000
      3 C3         -1.7949   -5.0223    7.4994 C.ar      1 <0>         0.0000
      4 C4         -1.7714   -5.0908    5.0845 C.ar      1 <0>         0.0000
      5 C5         -0.9563   -3.9590    5.0604 C.ar      1 <0>         0.0000
      6 C6         -2.1907   -5.6224    6.3041 C.ar      1 <0>         0.0000
      7 C7         -0.5097   -3.3917    3.7617 C.2       1 <0>         0.0000
      8 C8          1.9325   -1.0133    2.6768 C.2       1 <0>         0.0000
      9 C9         -1.3566    4.2423   -1.1718 C.3       1 <0>         0.0000
     10 C10        -1.3823    5.0762    1.2040 C.3       1 <0>         0.0000
     11 C11         0.2195    0.8307    0.9188 C.3       1 <0>         0.0000
     12 C12        -1.0001    1.1700    0.0549 C.3       1 <0>         0.0000
     13 C13         2.3649   -0.5352    1.2935 C.3       1 <0>         0.0000
     14 C14         1.1534   -0.2750    0.3710 C.3       1 <0>         0.0000
     15 C15        -1.0699    3.9009    0.2855 C.3       1 <0>         0.0000
     16 N1          1.6681    0.0834   -0.9557 N.3       1 <0>         0.0000
     17 N2          0.6851   -2.6985    3.7909 N.am      1 <0>         0.0000
     18 N3          1.1665   -2.1628    2.6216 N.am      1 <0>         0.0000
     19 O1         -1.1937   -3.5743    2.7577 O.2       1 <0>         0.0000
     20 O2          2.2299   -0.4108    3.7066 O.2       1 <0>         0.0000
     21 O3          3.2186   -1.5159    0.7230 O.3       1 <0>         0.0000
     22 S1         -2.0492    2.4644    0.7791 S.3       1 <0>         0.0000
     23 Cl1        -3.1960   -7.0191    6.3347 Cl        1 <0>         0.0000
     24 H1         -0.6713   -3.4233    8.4058 H         1 <0>         0.0000
     25 H2          0.0744   -2.4766    6.2497 H         1 <0>         0.0000
     26 H3         -2.1137   -5.4252    8.4572 H         1 <0>         0.0000
     27 H4         -2.0782   -5.5571    4.1505 H         1 <0>         0.0000
     28 H5         -2.4105    4.5137   -1.2989 H         1 <0>         0.0000
     29 H6         -0.7576    5.0967   -1.5064 H         1 <0>         0.0000
     30 H7         -1.1520    3.3963   -1.8378 H         1 <0>         0.0000
     31 H8         -2.4367    5.3604    1.1134 H         1 <0>         0.0000
     32 H9         -0.7841    5.9563    0.9431 H         1 <0>         0.0000
     33 H10        -1.1964    4.8333    2.2564 H         1 <0>         0.0000
     34 H11        -0.1531    0.5335    1.9082 H         1 <0>         0.0000
     35 H12         0.7975    1.7493    1.0822 H         1 <0>         0.0000
     36 H13        -1.6176    0.2727   -0.0585 H         1 <0>         0.0000
     37 H14        -0.7009    1.4813   -0.9501 H         1 <0>         0.0000
     38 H15         2.9484    0.3859    1.4229 H         1 <0>         0.0000
     39 H16         0.5915   -1.2082    0.2610 H         1 <0>         0.0000
     40 H17        -0.0132    3.6330    0.3910 H         1 <0>         0.0000
     41 H18         0.8845    0.1717   -1.5934 H         1 <0>         0.0000
     42 H19         2.2416   -0.6802   -1.2969 H         1 <0>         0.0000
     43 H20         1.1968   -2.5873    4.6594 H         1 <0>         0.0000
     44 H21         0.9630   -2.6038    1.7309 H         1 <0>         0.0000
     45 H22         2.7041   -2.3378    0.6655 H         1 <0>         0.0000
@<TRIPOS>BOND
     1    1    2 ar
     2    1    3 ar
     3    2    5 ar
     4    3    6 ar
     5    4    5 ar
     6    4    6 ar
     7    5    7 1
     8    6   23 1
     9    7   17 am
    10    7   19 2
    11    8   13 1
    12    8   18 am
    13    8   20 2
    14    9   15 1
    15   10   15 1
    16   11   12 1
    17   11   14 1
    18   12   22 1
    19   13   14 1
    20   13   21 1
    21   14   16 1
    22   15   22 1
    23   17   18 1
    24    1   24 1
    25    2   25 1
    26    3   26 1
    27    4   27 1
    28    9   28 1
    29    9   29 1
    30    9   30 1
    31   10   31 1
    32   10   32 1
    33   10   33 1
    34   11   34 1
    35   11   35 1
    36   12   36 1
    37   12   37 1
    38   13   38 1
    39   14   39 1
    40   15   40 1
    41   16   41 1
    42   16   42 1
    43   17   43 1
    44   18   44 1
    45   21   45 1
@<TRIPOS>MOLECULE
LIGAND
   45    45     0     0     0
SMALL
NO_CHARGES

@<TRIPOS>ATOM
      1 C1          0.9632   -1.9977    8.7659 C.ar      1 <0>         0.0000
      2 C2          1.2047   -1.6176    7.4458 C.ar      1 <0>         0.0000
      3 C3          0.2117   -1.1727    9.6029 C.ar      1 <0>         0.0000
      4 C4         -0.0565    0.4125    7.7995 C.ar      1 <0>         0.0000
      5 C5          0.6949   -0.4125    6.9626 C.ar      1 <0>         0.0000
      6 C6         -0.2981    0.0324    9.1197 C.ar      1 <0>         0.0000
      7 C7          0.9532   -0.0081    5.5563 C.2       1 <0>         0.0000
      8 C8          1.9325   -1.0133    2.6768 C.2       1 <0>         0.0000
      9 C9         -3.5321   -0.4018   -1.6691 C.3       1 <0>         0.0000
     10 C10        -4.8009   -1.0915    0.3936 C.3       1 <0>         0.0000
     11 C11         0.2195    0.8307    0.9188 C.3       1 <0>         0.0000
     12 C12        -1.2033    0.8526    0.3493 C.3       1 <0>         0.0000
     13 C13         2.3649   -0.5352    1.2935 C.3       1 <0>         0.0000
     14 C14         1.1534   -0.2750    0.3710 C.3       1 <0>         0.0000
     15 C15        -3.6666   -0.2375   -0.1600 C.3       1 <0>         0.0000
     16 N1          1.6681    0.0834   -0.9557 N.3       1 <0>         0.0000
     17 N2          2.1084   -0.5131    4.9911 N.am      1 <0>         0.0000
     18 N3          2.3999   -0.1941    3.6876 N.am      1 <0>         0.0000
     19 O1          0.1465    0.7178    4.9806 O.2       1 <0>         0.0000
     20 O2          1.2610   -2.0296    2.8442 O.2       1 <0>         0.0000
     21 O3          3.2186   -1.5159    0.7230 O.3       1 <0>         0.0000
     22 S1         -2.1131   -0.6921    0.6437 S.3       1 <0>         0.0000
     23 Cl1        -1.2257    1.0496   10.1528 Cl        1 <0>         0.0000
     24 H1          1.3599   -2.9361    9.1418 H         1 <0>         0.0000
     25 H2          1.7918   -2.2688    6.8033 H         1 <0>         0.0000
     26 H3          0.0317   -1.4820   10.6292 H         1 <0>         0.0000
     27 H4         -0.4535    1.3518    7.4197 H         1 <0>         0.0000
     28 H5         -3.3350   -1.4497   -1.9217 H         1 <0>         0.0000
     29 H6         -4.4532   -0.1099   -2.1857 H         1 <0>         0.0000
     30 H7         -2.7065    0.1949   -2.0734 H         1 <0>         0.0000
     31 H8         -4.6234   -2.1499    0.1727 H         1 <0>         0.0000
     32 H9         -5.7614   -0.8209   -0.0589 H         1 <0>         0.0000
     33 H10        -4.8932   -0.9935    1.4813 H         1 <0>         0.0000
     34 H11         0.1339    0.7261    2.0087 H         1 <0>         0.0000
     35 H12         0.6781    1.8133    0.7493 H         1 <0>         0.0000
     36 H13        -1.1514    1.0013   -0.7344 H         1 <0>         0.0000
     37 H14        -1.7823    1.6852    0.7589 H         1 <0>         0.0000
     38 H15         2.9484    0.3859    1.4229 H         1 <0>         0.0000
     39 H16         0.5915   -1.2082    0.2610 H         1 <0>         0.0000
     40 H17        -3.8630    0.8149    0.0711 H         1 <0>         0.0000
     41 H18         0.8845    0.1717   -1.5934 H         1 <0>         0.0000
     42 H19         2.2416   -0.6802   -1.2969 H         1 <0>         0.0000
     43 H20         2.7293   -1.1081    5.5287 H         1 <0>         0.0000
     44 H21         2.9499    0.6302    3.4697 H         1 <0>         0.0000
     45 H22         2.7041   -2.3378    0.6655 H         1 <0>         0.0000
@<TRIPOS>BOND
     1    1    2 ar
     2    1    3 ar
     3    2    5 ar
     4    3    6 ar
     5    4    5 ar
     6    4    6 ar
     7    5    7 1
     8    6   23 1
     9    7   17 am
    10    7   19 2
    11    8   13 1
    12    8   18 am
    13    8   20 2
    14    9   15 1
    15   10   15 1
    16   11   12 1
    17   11   14 1
    18   12   22 1
    19   13   14 1
    20   13   21 1
    21   14   16 1
    22   15   22 1
    23   17   18 1
    24    1   24 1
    25    2   25 1
    26    3   26 1
    27    4   27 1
    28    9   28 1
    29    9   29 1
    30    9   30 1
    31   10   31 1
    32   10   32 1
    33   10   33 1
    34   11   34 1
    35   11   35 1
    36   12   36 1
    37   12   37 1
    38   13   38 1
    39   14   39 1
    40   15   40 1
    41   16   41 1
    42   16   42 1
    43   17   43 1
    44   18   44 1
    45   21   45 1
@<TRIPOS>MOLECULE
LIGAND
   45    45     0     0     0
SMALL
NO_CHARGES

@<TRIPOS>ATOM
      1 C1          1.3177   -0.8505    9.3642 C.ar      1 <0>         0.0000
      2 C2          1.8364   -0.5518    8.1043 C.ar      1 <0>         0.0000
      3 C3         -0.0628   -0.9206    9.5514 C.ar      1 <0>         0.0000
      4 C4         -0.4059   -0.3930    7.2188 C.ar      1 <0>         0.0000
      5 C5          0.9746   -0.3231    7.0316 C.ar      1 <0>         0.0000
      6 C6         -0.9246   -0.6918    8.4788 C.ar      1 <0>         0.0000
      7 C7          1.5280   -0.0043    5.6900 C.2       1 <0>         0.0000
      8 C8          1.9325   -1.0133    2.6768 C.2       1 <0>         0.0000
      9 C9          5.1418    3.1300   -1.9709 C.3       1 <0>         0.0000
     10 C10         3.7665    4.3432   -3.6963 C.3       1 <0>         0.0000
     11 C11         1.5761    0.1765   -1.0474 C.3       1 <0>         0.0000
     12 C12         2.3784    1.4800   -1.1273 C.3       1 <0>         0.0000
     13 C13         2.3649   -0.5352    1.2935 C.3       1 <0>         0.0000
     14 C14         1.1534   -0.2750    0.3710 C.3       1 <0>         0.0000
     15 C15         3.7349    3.4566   -2.4572 C.3       1 <0>         0.0000
     16 N1          0.3597   -1.5080    0.3138 N.3       1 <0>         0.0000
     17 N2          0.7320   -0.3536    4.6161 N.am      1 <0>         0.0000
     18 N3          1.1743   -0.0714    3.3469 N.am      1 <0>         0.0000
     19 O1          2.6215    0.5492    5.6056 O.2       1 <0>         0.0000
     20 O2          2.2555   -2.1109    3.1269 O.2       1 <0>         0.0000
     21 O3          3.2186   -1.5159    0.7230 O.3       1 <0>         0.0000
     22 S1          2.8465    1.9264   -2.8249 S.3       1 <0>         0.0000
     23 Cl1        -2.6279   -0.7789    8.7104 Cl        1 <0>         0.0000
     24 H1          1.9889   -1.0289   10.1992 H         1 <0>         0.0000
     25 H2          2.9139   -0.5000    7.9709 H         1 <0>         0.0000
     26 H3         -0.4524   -1.1543   10.5388 H         1 <0>         0.0000
     27 H4         -1.0758   -0.2147    6.3801 H         1 <0>         0.0000
     28 H5          5.7052    2.6127   -2.7555 H         1 <0>         0.0000
     29 H6          5.6972    4.0398   -1.7170 H         1 <0>         0.0000
     30 H7          5.1290    2.4774   -1.0905 H         1 <0>         0.0000
     31 H8          4.3088    3.8446   -4.5075 H         1 <0>         0.0000
     32 H9          4.2791    5.2906   -3.4959 H         1 <0>         0.0000
     33 H10         2.7588    4.5681   -4.0639 H         1 <0>         0.0000
     34 H11         2.1843   -0.6108   -1.5125 H         1 <0>         0.0000
     35 H12         0.6847    0.2765   -1.6798 H         1 <0>         0.0000
     36 H13         3.3029    1.3655   -0.5514 H         1 <0>         0.0000
     37 H14         1.8267    2.3139   -0.6838 H         1 <0>         0.0000
     38 H15         2.9484    0.3859    1.4229 H         1 <0>         0.0000
     39 H16         0.5249    0.4957    0.8291 H         1 <0>         0.0000
     40 H17         3.1895    3.9723   -1.6597 H         1 <0>         0.0000
     41 H18        -0.4842   -1.3249   -0.2178 H         1 <0>         0.0000
     42 H19         0.0690   -1.7492    1.2550 H         1 <0>         0.0000
     43 H20        -0.1619   -0.8097    4.7623 H         1 <0>         0.0000
     44 H21         0.9480    0.8148    2.9078 H         1 <0>         0.0000
     45 H22         2.7041   -2.3378    0.6655 H         1 <0>         0.0000
@<TRIPOS>BOND
     1    1    2 ar
     2    1    3 ar
     3    2    5 ar
     4    3    6 ar
     5    4    5 ar
     6    4    6 ar
     7    5    7 1
     8    6   23 1
     9    7   17 am
    10    7   19 2
    11    8   13 1
    12    8   18 am
    13    8   20 2
    14    9   15 1
    15   10   15 1
    16   11   12 1
    17   11   14 1
    18   12   22 1
    19   13   14 1
    20   13   21 1
    21   14   16 1
    22   15   22 1
    23   17   18 1
    24    1   24 1
    25    2   25 1
    26    3   26 1
    27    4   27 1
    28    9   28 1
    29    9   29 1
    30    9   30 1
    31   10   31 1
    32   10   32 1
    33   10   33 1
    34   11   34 1
    35   11   35 1
    36   12   36 1
    37   12   37 1
    38   13   38 1
    39   14   39 1
    40   15   40 1
    41   16   41 1
    42   16   42 1
    43   17   43 1
    44   18   44 1
    45   21   45 1
@<TRIPOS>MOLECULE
LIGAND
   45    45     0     0     0
SMALL
NO_CHARGES

@<TRIPOS>ATOM
      1 C1         -0.3215   -0.8559    8.6664 C.ar      1 <0>         0.0000
      2 C2          0.0752   -0.5122    7.3741 C.ar      1 <0>         0.0000
      3 C3         -1.6746   -0.8506    9.0052 C.ar      1 <0>         0.0000
      4 C4         -2.2343   -0.1577    6.7594 C.ar      1 <0>         0.0000
      5 C5         -0.8811   -0.1631    6.4206 C.ar      1 <0>         0.0000
      6 C6         -2.6310   -0.5015    8.0517 C.ar      1 <0>         0.0000
      7 C7         -0.4576    0.2036    5.0443 C.2       1 <0>         0.0000
      8 C8          1.9325   -1.0133    2.6768 C.2       1 <0>         0.0000
      9 C9         -2.8728    0.1140   -1.9046 C.3       1 <0>         0.0000
     10 C10        -3.0339    2.5013   -2.6891 C.3       1 <0>         0.0000
     11 C11         1.5761    0.1765   -1.0474 C.3       1 <0>         0.0000
     12 C12         0.4360    0.4372   -2.0380 C.3       1 <0>         0.0000
     13 C13         2.3649   -0.5352    1.2935 C.3       1 <0>         0.0000
     14 C14         1.1534   -0.2750    0.3710 C.3       1 <0>         0.0000
     15 C15        -2.1244    1.2902   -2.5202 C.3       1 <0>         0.0000
     16 N1          0.3597   -1.5080    0.3138 N.3       1 <0>         0.0000
     17 N2          0.7320   -0.3536    4.6161 N.am      1 <0>         0.0000
     18 N3          1.1743   -0.0714    3.3469 N.am      1 <0>         0.0000
     19 O1         -1.1696    0.9461    4.3728 O.2       1 <0>         0.0000
     20 O2          2.2555   -2.1109    3.1269 O.2       1 <0>         0.0000
     21 O3          3.2186   -1.5159    0.7230 O.3       1 <0>         0.0000
     22 S1         -0.7139    1.7277   -1.4786 S.3       1 <0>         0.0000
     23 Cl1        -4.3005   -0.4957    8.4703 Cl        1 <0>         0.0000
     24 H1          0.4232   -1.1280    9.4085 H         1 <0>         0.0000
     25 H2          1.1326   -0.5199    7.1221 H         1 <0>         0.0000
     26 H3         -1.9688   -1.1207   10.0161 H         1 <0>         0.0000
     27 H4         -2.9782    0.1145    6.0133 H         1 <0>         0.0000
     28 H5         -3.2728    0.3895   -0.9223 H         1 <0>         0.0000
     29 H6         -3.7211   -0.1892   -2.5283 H         1 <0>         0.0000
     30 H7         -2.2215   -0.7559   -1.7625 H         1 <0>         0.0000
     31 H8         -3.4363    2.8134   -1.7189 H         1 <0>         0.0000
     32 H9         -3.8871    2.2721   -3.3372 H         1 <0>         0.0000
     33 H10        -2.4990    3.3582   -3.1144 H         1 <0>         0.0000
     34 H11         2.1631    1.1018   -0.9736 H         1 <0>         0.0000
     35 H12         2.2520   -0.5707   -1.4824 H         1 <0>         0.0000
     36 H13        -0.1421   -0.4839   -2.1668 H         1 <0>         0.0000
     37 H14         0.8216    0.7132   -3.0237 H         1 <0>         0.0000
     38 H15         2.9484    0.3859    1.4229 H         1 <0>         0.0000
     39 H16         0.5249    0.4957    0.8291 H         1 <0>         0.0000
     40 H17        -1.7333    0.9948   -3.4996 H         1 <0>         0.0000
     41 H18        -0.4842   -1.3249   -0.2178 H         1 <0>         0.0000
     42 H19         0.0690   -1.7492    1.2550 H         1 <0>         0.0000
     43 H20         1.2684   -0.9594    5.2274 H         1 <0>         0.0000
     44 H21         0.9480    0.8148    2.9078 H         1 <0>         0.0000
     45 H22         2.7041   -2.3378    0.6655 H         1 <0>         0.0000
@<TRIPOS>BOND
     1    1    2 ar
     2    1    3 ar
     3    2    5 ar
     4    3    6 ar
     5    4    5 ar
     6    4    6 ar
     7    5    7 1
     8    6   23 1
     9    7   17 am
    10    7   19 2
    11    8   13 1
    12    8   18 am
    13    8   20 2
    14    9   15 1
    15   10   15 1
    16   11   12 1
    17   11   14 1
    18   12   22 1
    19   13   14 1
    20   13   21 1
    21   14   16 1
    22   15   22 1
    23   17   18 1
    24    1   24 1
    25    2   25 1
    26    3   26 1
    27    4   27 1
    28    9   28 1
    29    9   29 1
    30    9   30 1
    31   10   31 1
    32   10   32 1
    33   10   33 1
    34   11   34 1
    35   11   35 1
    36   12   36 1
    37   12   37 1
    38   13   38 1
    39   14   39 1
    40   15   40 1
    41   16   41 1
    42   16   42 1
    43   17   43 1
    44   18   44 1
    45   21   45 1
@<TRIPOS>MOLECULE
LIGAND
   45    45     0     0     0
SMALL
NO_CHARGES

@<TRIPOS>ATOM
      1 C1          1.7016   -1.5775    9.0493 C.ar      1 <0>         0.0000
      2 C2          2.0163   -1.1820    7.7492 C.ar      1 <0>         0.0000
      3 C3          1.0236   -0.7037    9.8993 C.ar      1 <0>         0.0000
      4 C4          0.9750    0.9611    8.1491 C.ar      1 <0>         0.0000
      5 C5          1.6530    0.0872    7.2991 C.ar      1 <0>         0.0000
      6 C6          0.6603    0.5655    9.4492 C.ar      1 <0>         0.0000
      7 C7          1.9892    0.5079    5.9143 C.2       1 <0>         0.0000
      8 C8          1.9325   -1.0133    2.6768 C.2       1 <0>         0.0000
      9 C9         -4.5409   -0.2645   -1.4345 C.3       1 <0>         0.0000
     10 C10        -4.2498    1.2273    0.5730 C.3       1 <0>         0.0000
     11 C11         0.2195    0.8307    0.9188 C.3       1 <0>         0.0000
     12 C12        -1.0001    1.1700    0.0549 C.3       1 <0>         0.0000
     13 C13         2.3649   -0.5352    1.2935 C.3       1 <0>         0.0000
     14 C14         1.1534   -0.2750    0.3710 C.3       1 <0>         0.0000
     15 C15        -3.5917    0.6563   -0.6773 C.3       1 <0>         0.0000
     16 N1          1.6681    0.0834   -0.9557 N.3       1 <0>         0.0000
     17 N2          2.1084   -0.5131    4.9911 N.am      1 <0>         0.0000
     18 N3          2.3999   -0.1941    3.6876 N.am      1 <0>         0.0000
     19 O1          2.1244    1.7030    5.6640 O.2       1 <0>         0.0000
     20 O2          1.2610   -2.0296    2.8442 O.2       1 <0>         0.0000
     21 O3          3.2186   -1.5159    0.7230 O.3       1 <0>         0.0000
     22 S1         -2.0977   -0.2515   -0.2193 S.3       1 <0>         0.0000
     23 Cl1        -0.1768    1.6430   10.4984 Cl        1 <0>         0.0000
     24 H1          1.9843   -2.5659    9.3994 H         1 <0>         0.0000
     25 H2          2.5450   -1.8717    7.0963 H         1 <0>         0.0000
     26 H3          0.7851   -1.0258   10.9097 H         1 <0>         0.0000
     27 H4          0.6923    1.9504    7.7951 H         1 <0>         0.0000
     28 H5         -4.8550   -1.0968   -0.7948 H         1 <0>         0.0000
     29 H6         -5.4473    0.2665   -1.7465 H         1 <0>         0.0000
     30 H7         -4.0696   -0.6943   -2.3258 H         1 <0>         0.0000
     31 H8         -4.5594    0.4179    1.2437 H         1 <0>         0.0000
     32 H9         -5.1470    1.8046    0.3233 H         1 <0>         0.0000
     33 H10        -3.5678    1.8766    1.1339 H         1 <0>         0.0000
     34 H11        -0.1531    0.5335    1.9082 H         1 <0>         0.0000
     35 H12         0.7975    1.7493    1.0822 H         1 <0>         0.0000
     36 H13        -0.6573    1.5138   -0.9268 H         1 <0>         0.0000
     37 H14        -1.5832    1.9849    0.4933 H         1 <0>         0.0000
     38 H15         2.9484    0.3859    1.4229 H         1 <0>         0.0000
     39 H16         0.5915   -1.2082    0.2610 H         1 <0>         0.0000
     40 H17        -3.2902    1.4801   -1.3331 H         1 <0>         0.0000
     41 H18         0.8845    0.1717   -1.5934 H         1 <0>         0.0000
     42 H19         2.2416   -0.6802   -1.2969 H         1 <0>         0.0000
     43 H20         1.9830   -1.4798    5.2709 H         1 <0>         0.0000
     44 H21         2.9499    0.6302    3.4697 H         1 <0>         0.0000
     45 H22         2.7041   -2.3378    0.6655 H         1 <0>         0.0000
@<TRIPOS>BOND
     1    1    2 ar
     2    1    3 ar
     3    2    5 ar
     4    3    6 ar
     5    4    5 ar
     6    4    6 ar
     7    5    7 1
     8    6   23 1
     9    7   17 am
    10    7   19 2
    11    8   13 1
    12    8   18 am
    13    8   20 2
    14    9   15 1
    15   10   15 1
    16   11   12 1
    17   11   14 1
    18   12   22 1
    19   13   14 1
    20   13   21 1
    21   14   16 1
    22   15   22 1
    23   17   18 1
    24    1   24 1
    25    2   25 1
    26    3   26 1
    27    4   27 1
    28    9   28 1
    29    9   29 1
    30    9   30 1
    31   10   31 1
    32   10   32 1
    33   10   33 1
    34   11   34 1
    35   11   35 1
    36   12   36 1
    37   12   37 1
    38   13   38 1
    39   14   39 1
    40   15   40 1
    41   16   41 1
    42   16   42 1
    43   17   43 1
    44   18   44 1
    45   21   45 1
@<TRIPOS>MOLECULE
LIGAND
   45    45     0     0     0
SMALL
NO_CHARGES

@<TRIPOS>ATOM
      1 C1         -2.0859    0.3620    8.4478 C.ar      1 <0>         0.0000
      2 C2         -1.6873    0.7057    7.1561 C.ar      1 <0>         0.0000
      3 C3         -1.6782   -0.8505    9.0041 C.ar      1 <0>         0.0000
      4 C4         -0.4734   -1.3755    6.9768 C.ar      1 <0>         0.0000
      5 C5         -0.8811   -0.1631    6.4206 C.ar      1 <0>         0.0000
      6 C6         -0.8720   -1.7192    8.2686 C.ar      1 <0>         0.0000
      7 C7         -0.4576    0.2036    5.0443 C.2       1 <0>         0.0000
      8 C8          1.9325   -1.0133    2.6768 C.2       1 <0>         0.0000
      9 C9         -1.2188    2.4860   -4.0715 C.3       1 <0>         0.0000
     10 C10        -0.4191    1.0621   -5.9881 C.3       1 <0>         0.0000
     11 C11         1.5761    0.1765   -1.0474 C.3       1 <0>         0.0000
     12 C12         0.4360    0.4372   -2.0380 C.3       1 <0>         0.0000
     13 C13         2.3649   -0.5352    1.2935 C.3       1 <0>         0.0000
     14 C14         1.1534   -0.2750    0.3710 C.3       1 <0>         0.0000
     15 C15        -0.5876    1.1594   -4.4766 C.3       1 <0>         0.0000
     16 N1          0.3597   -1.5080    0.3138 N.3       1 <0>         0.0000
     17 N2          0.7320   -0.3536    4.6161 N.am      1 <0>         0.0000
     18 N3          1.1743   -0.0714    3.3469 N.am      1 <0>         0.0000
     19 O1         -1.1696    0.9461    4.3728 O.2       1 <0>         0.0000
     20 O2          2.2555   -2.1109    3.1269 O.2       1 <0>         0.0000
     21 O3          3.2186   -1.5159    0.7230 O.3       1 <0>         0.0000
     22 S1          1.0200    0.9781   -3.6711 S.3       1 <0>         0.0000
     23 Cl1        -0.3688   -3.2149    8.9559 Cl        1 <0>         0.0000
     24 H1         -2.7133    1.0387    9.0204 H         1 <0>         0.0000
     25 H2         -2.0115    1.6532    6.7333 H         1 <0>         0.0000
     26 H3         -1.9966   -1.1048   10.0118 H         1 <0>         0.0000
     27 H4          0.1559   -2.0511    6.4010 H         1 <0>         0.0000
     28 H5         -0.5957    3.3223   -4.4074 H         1 <0>         0.0000
     29 H6         -2.2073    2.6127   -4.5270 H         1 <0>         0.0000
     30 H7         -1.3270    2.5723   -2.9843 H         1 <0>         0.0000
     31 H8          0.2163    1.8766   -6.3535 H         1 <0>         0.0000
     32 H9         -1.3827    1.1446   -6.5030 H         1 <0>         0.0000
     33 H10         0.0512    0.1184   -6.2872 H         1 <0>         0.0000
     34 H11         2.1631    1.1018   -0.9736 H         1 <0>         0.0000
     35 H12         2.2520   -0.5707   -1.4824 H         1 <0>         0.0000
     36 H13        -0.2073    1.2295   -1.6408 H         1 <0>         0.0000
     37 H14        -0.1907   -0.4501   -2.1649 H         1 <0>         0.0000
     38 H15         2.9484    0.3859    1.4229 H         1 <0>         0.0000
     39 H16         0.5249    0.4957    0.8291 H         1 <0>         0.0000
     40 H17        -1.2247    0.3378   -4.1321 H         1 <0>         0.0000
     41 H18        -0.4842   -1.3249   -0.2178 H         1 <0>         0.0000
     42 H19         0.0690   -1.7492    1.2550 H         1 <0>         0.0000
     43 H20         1.2684   -0.9594    5.2274 H         1 <0>         0.0000
     44 H21         0.9480    0.8148    2.9078 H         1 <0>         0.0000
     45 H22         2.7041   -2.3378    0.6655 H         1 <0>         0.0000
@<TRIPOS>BOND
     1    1    2 ar
     2    1    3 ar
     3    2    5 ar
     4    3    6 ar
     5    4    5 ar
     6    4    6 ar
     7    5    7 1
     8    6   23 1
     9    7   17 am
    10    7   19 2
    11    8   13 1
    12    8   18 am
    13    8   20 2
    14    9   15 1
    15   10   15 1
    16   11   12 1
    17   11   14 1
    18   12   22 1
    19   13   14 1
    20   13   21 1
    21   14   16 1
    22   15   22 1
    23   17   18 1
    24    1   24 1
    25    2   25 1
    26    3   26 1
    27    4   27 1
    28    9   28 1
    29    9   29 1
    30    9   30 1
    31   10   31 1
    32   10   32 1
    33   10   33 1
    34   11   34 1
    35   11   35 1
    36   12   36 1
    37   12   37 1
    38   13   38 1
    39   14   39 1
    40   15   40 1
    41   16   41 1
    42   16   42 1
    43   17   43 1
    44   18   44 1
    45   21   45 1
@<TRIPOS>MOLECULE
LIGAND
   45    45     0     0     0
SMALL
NO_CHARGES

@<TRIPOS>ATOM
      1 C1          2.3780   -0.2776    9.6931 C.ar      1 <0>         0.0000
      2 C2          2.6800    0.1631    8.4046 C.ar      1 <0>         0.0000
      3 C3          2.1604   -1.6343    9.9331 C.ar      1 <0>         0.0000
      4 C4          2.5467   -2.1098    7.5961 C.ar      1 <0>         0.0000
      5 C5          2.7643   -0.7530    7.3561 C.ar      1 <0>         0.0000
      6 C6          2.2447   -2.5504    8.8846 C.ar      1 <0>         0.0000
      7 C7          3.0854   -0.2826    5.9837 C.2       1 <0>         0.0000
      8 C8          1.9325   -1.0133    2.6768 C.2       1 <0>         0.0000
      9 C9         -3.5456    2.3208    3.0565 C.3       1 <0>         0.0000
     10 C10        -4.0220    0.6377    1.2453 C.3       1 <0>         0.0000
     11 C11         0.2195    0.8307    0.9188 C.3       1 <0>         0.0000
     12 C12        -1.0001    1.1700    0.0549 C.3       1 <0>         0.0000
     13 C13         2.3649   -0.5352    1.2935 C.3       1 <0>         0.0000
     14 C14         1.1534   -0.2750    0.3710 C.3       1 <0>         0.0000
     15 C15        -2.9459    1.4397    1.9673 C.3       1 <0>         0.0000
     16 N1          1.6681    0.0834   -0.9557 N.3       1 <0>         0.0000
     17 N2          2.6023   -1.0670    4.9540 N.am      1 <0>         0.0000
     18 N3          2.8469   -0.6810    3.6590 N.am      1 <0>         0.0000
     19 O1          3.7293    0.7533    5.8374 O.2       1 <0>         0.0000
     20 O2          0.8915   -1.6405    2.8632 O.2       1 <0>         0.0000
     21 O3          3.2186   -1.5159    0.7230 O.3       1 <0>         0.0000
     22 S1         -2.0492    2.4644    0.7791 S.3       1 <0>         0.0000
     23 Cl1         1.9766   -4.2245    9.1816 Cl        1 <0>         0.0000
     24 H1          2.3127    0.4358   10.5093 H         1 <0>         0.0000
     25 H2          2.8474    1.2228    8.2300 H         1 <0>         0.0000
     26 H3          1.9260   -1.9630   10.9423 H         1 <0>         0.0000
     27 H4          2.6137   -2.8222    6.7763 H         1 <0>         0.0000
     28 H5         -4.2705    3.0197    2.6246 H         1 <0>         0.0000
     29 H6         -4.0763    1.7229    3.8059 H         1 <0>         0.0000
     30 H7         -2.7806    2.9152    3.5690 H         1 <0>         0.0000
     31 H8         -4.7543    1.3108    0.7855 H         1 <0>         0.0000
     32 H9         -4.5673   -0.0125    1.9385 H         1 <0>         0.0000
     33 H10        -3.6015    0.0146    0.4477 H         1 <0>         0.0000
     34 H11        -0.1531    0.5335    1.9082 H         1 <0>         0.0000
     35 H12         0.7975    1.7493    1.0822 H         1 <0>         0.0000
     36 H13        -1.6176    0.2727   -0.0585 H         1 <0>         0.0000
     37 H14        -0.7009    1.4813   -0.9501 H         1 <0>         0.0000
     38 H15         2.9484    0.3859    1.4229 H         1 <0>         0.0000
     39 H16         0.5915   -1.2082    0.2610 H         1 <0>         0.0000
     40 H17        -2.2253    0.7496    2.4190 H         1 <0>         0.0000
     41 H18         0.8845    0.1717   -1.5934 H         1 <0>         0.0000
     42 H19         2.2416   -0.6802   -1.2969 H         1 <0>         0.0000
     43 H20         2.0769   -1.9119    5.1509 H         1 <0>         0.0000
     44 H21         3.6858   -0.1599    3.4266 H         1 <0>         0.0000
     45 H22         2.7041   -2.3378    0.6655 H         1 <0>         0.0000
@<TRIPOS>BOND
     1    1    2 ar
     2    1    3 ar
     3    2    5 ar
     4    3    6 ar
     5    4    5 ar
     6    4    6 ar
     7    5    7 1
     8    6   23 1
     9    7   17 am
    10    7   19 2
    11    8   13 1
    12    8   18 am
    13    8   20 2
    14    9   15 1
    15   10   15 1
    16   11   12 1
    17   11   14 1
    18   12   22 1
    19   13   14 1
    20   13   21 1
    21   14   16 1
    22   15   22 1
    23   17   18 1
    24    1   24 1
    25    2   25 1
    26    3   26 1
    27    4   27 1
    28    9   28 1
    29    9   29 1
    30    9   30 1
    31   10   31 1
    32   10   32 1
    33   10   33 1
    34   11   34 1
    35   11   35 1
    36   12   36 1
    37   12   37 1
    38   13   38 1
    39   14   39 1
    40   15   40 1
    41   16   41 1
    42   16   42 1
    43   17   43 1
    44   18   44 1
    45   21   45 1
@<TRIPOS>MOLECULE
LIGAND
   45    45     0     0     0
SMALL
NO_CHARGES

@<TRIPOS>ATOM
      1 C1         -0.4443   -1.6789    8.4406 C.ar      1 <0>         0.0000
      2 C2          0.0752   -1.3786    7.1814 C.ar      1 <0>         0.0000
      3 C3         -0.0644   -0.9236    9.5500 C.ar      1 <0>         0.0000
      4 C4          1.3546    0.4323    8.1411 C.ar      1 <0>         0.0000
      5 C5          0.9746   -0.3231    7.0316 C.ar      1 <0>         0.0000
      6 C6          0.8350    0.1320    9.4003 C.ar      1 <0>         0.0000
      7 C7          1.5280   -0.0043    5.6900 C.2       1 <0>         0.0000
      8 C8          1.9325   -1.0133    2.6768 C.2       1 <0>         0.0000
      9 C9         -1.2188    2.4860   -4.0715 C.3       1 <0>         0.0000
     10 C10        -0.4191    1.0621   -5.9881 C.3       1 <0>         0.0000
     11 C11         1.5761    0.1765   -1.0474 C.3       1 <0>         0.0000
     12 C12         0.4360    0.4372   -2.0380 C.3       1 <0>         0.0000
     13 C13         2.3649   -0.5352    1.2935 C.3       1 <0>         0.0000
     14 C14         1.1534   -0.2750    0.3710 C.3       1 <0>         0.0000
     15 C15        -0.5876    1.1594   -4.4766 C.3       1 <0>         0.0000
     16 N1          0.3597   -1.5080    0.3138 N.3       1 <0>         0.0000
     17 N2          0.7320   -0.3536    4.6161 N.am      1 <0>         0.0000
     18 N3          1.1743   -0.0714    3.3469 N.am      1 <0>         0.0000
     19 O1          2.6215    0.5492    5.6056 O.2       1 <0>         0.0000
     20 O2          2.2555   -2.1109    3.1269 O.2       1 <0>         0.0000
     21 O3          3.2186   -1.5159    0.7230 O.3       1 <0>         0.0000
     22 S1          1.0200    0.9781   -3.6711 S.3       1 <0>         0.0000
     23 Cl1         1.3030    1.0639   10.7696 Cl        1 <0>         0.0000
     24 H1         -1.1448   -2.5006    8.5569 H         1 <0>         0.0000
     25 H2         -0.2283   -1.9745    6.3244 H         1 <0>         0.0000
     26 H3         -0.4775   -1.1693   10.5250 H         1 <0>         0.0000
     27 H4          2.0560    1.2555    8.0212 H         1 <0>         0.0000
     28 H5         -0.5957    3.3223   -4.4074 H         1 <0>         0.0000
     29 H6         -2.2073    2.6127   -4.5270 H         1 <0>         0.0000
     30 H7         -1.3270    2.5723   -2.9843 H         1 <0>         0.0000
     31 H8          0.2163    1.8766   -6.3535 H         1 <0>         0.0000
     32 H9         -1.3827    1.1446   -6.5030 H         1 <0>         0.0000
     33 H10         0.0512    0.1184   -6.2872 H         1 <0>         0.0000
     34 H11         2.1631    1.1018   -0.9736 H         1 <0>         0.0000
     35 H12         2.2520   -0.5707   -1.4824 H         1 <0>         0.0000
     36 H13        -0.2073    1.2295   -1.6408 H         1 <0>         0.0000
     37 H14        -0.1907   -0.4501   -2.1649 H         1 <0>         0.0000
     38 H15         2.9484    0.3859    1.4229 H         1 <0>         0.0000
     39 H16         0.5249    0.4957    0.8291 H         1 <0>         0.0000
     40 H17        -1.2247    0.3378   -4.1321 H         1 <0>         0.0000
     41 H18        -0.4842   -1.3249   -0.2178 H         1 <0>         0.0000
     42 H19         0.0690   -1.7492    1.2550 H         1 <0>         0.0000
     43 H20        -0.1619   -0.8097    4.7623 H         1 <0>         0.0000
     44 H21         0.9480    0.8148    2.9078 H         1 <0>         0.0000
     45 H22         2.7041   -2.3378    0.6655 H         1 <0>         0.0000
@<TRIPOS>BOND
     1    1    2 ar
     2    1    3 ar
     3    2    5 ar
     4    3    6 ar
     5    4    5 ar
     6    4    6 ar
     7    5    7 1
     8    6   23 1
     9    7   17 am
    10    7   19 2
    11    8   13 1
    12    8   18 am
    13    8   20 2
    14    9   15 1
    15   10   15 1
    16   11   12 1
    17   11   14 1
    18   12   22 1
    19   13   14 1
    20   13   21 1
    21   14   16 1
    22   15   22 1
    23   17   18 1
    24    1   24 1
    25    2   25 1
    26    3   26 1
    27    4   27 1
    28    9   28 1
    29    9   29 1
    30    9   30 1
    31   10   31 1
    32   10   32 1
    33   10   33 1
    34   11   34 1
    35   11   35 1
    36   12   36 1
    37   12   37 1
    38   13   38 1
    39   14   39 1
    40   15   40 1
    41   16   41 1
    42   16   42 1
    43   17   43 1
    44   18   44 1
    45   21   45 1
@<TRIPOS>MOLECULE
LIGAND
   45    45     0     0     0
SMALL
NO_CHARGES

@<TRIPOS>ATOM
      1 C1          0.8357    0.1354    9.3996 C.ar      1 <0>         0.0000
      2 C2          1.3551    0.4336    8.1400 C.ar      1 <0>         0.0000
      3 C3         -0.0643   -0.9196    9.5510 C.ar      1 <0>         0.0000
      4 C4          0.0746   -1.3780    7.1830 C.ar      1 <0>         0.0000
      5 C5          0.9746   -0.3231    7.0316 C.ar      1 <0>         0.0000
      6 C6         -0.4448   -1.6762    8.4427 C.ar      1 <0>         0.0000
      7 C7          1.5280   -0.0043    5.6900 C.2       1 <0>         0.0000
      8 C8          1.9325   -1.0133    2.6768 C.2       1 <0>         0.0000
      9 C9          1.1606    4.0721   -2.8209 C.3       1 <0>         0.0000
     10 C10         1.1711    2.6068   -4.8686 C.3       1 <0>         0.0000
     11 C11         1.5761    0.1765   -1.0474 C.3       1 <0>         0.0000
     12 C12         2.3784    1.4800   -1.1273 C.3       1 <0>         0.0000
     13 C13         2.3649   -0.5352    1.2935 C.3       1 <0>         0.0000
     14 C14         1.1534   -0.2750    0.3710 C.3       1 <0>         0.0000
     15 C15         1.2741    2.6470   -3.3486 C.3       1 <0>         0.0000
     16 N1          0.3597   -1.5080    0.3138 N.3       1 <0>         0.0000
     17 N2          0.7320   -0.3536    4.6161 N.am      1 <0>         0.0000
     18 N3          1.1743   -0.0714    3.3469 N.am      1 <0>         0.0000
     19 O1          2.6215    0.5492    5.6056 O.2       1 <0>         0.0000
     20 O2          2.2555   -2.1109    3.1269 O.2       1 <0>         0.0000
     21 O3          3.2186   -1.5159    0.7230 O.3       1 <0>         0.0000
     22 S1          2.8465    1.9264   -2.8249 S.3       1 <0>         0.0000
     23 Cl1        -1.5550   -2.9781    8.6304 Cl        1 <0>         0.0000
     24 H1          1.1323    0.7244   10.2624 H         1 <0>         0.0000
     25 H2          2.0556    1.2581    8.0346 H         1 <0>         0.0000
     26 H3         -0.4608   -1.1402   10.5387 H         1 <0>         0.0000
     27 H4         -0.2200   -1.9669    6.3167 H         1 <0>         0.0000
     28 H5          1.9558    4.6980   -3.2410 H         1 <0>         0.0000
     29 H6          0.2046    4.5270   -3.1034 H         1 <0>         0.0000
     30 H7          1.2520    4.1126   -1.7295 H         1 <0>         0.0000
     31 H8          1.9665    3.2101   -5.3202 H         1 <0>         0.0000
     32 H9          0.2154    3.0160   -5.2145 H         1 <0>         0.0000
     33 H10         1.2700    1.5872   -5.2582 H         1 <0>         0.0000
     34 H11         2.1843   -0.6108   -1.5125 H         1 <0>         0.0000
     35 H12         0.6847    0.2765   -1.6798 H         1 <0>         0.0000
     36 H13         3.3029    1.3655   -0.5514 H         1 <0>         0.0000
     37 H14         1.8267    2.3139   -0.6838 H         1 <0>         0.0000
     38 H15         2.9484    0.3859    1.4229 H         1 <0>         0.0000
     39 H16         0.5249    0.4957    0.8291 H         1 <0>         0.0000
     40 H17         0.4716    2.0389   -2.9175 H         1 <0>         0.0000
     41 H18        -0.4842   -1.3249   -0.2178 H         1 <0>         0.0000
     42 H19         0.0690   -1.7492    1.2550 H         1 <0>         0.0000
     43 H20        -0.1619   -0.8097    4.7623 H         1 <0>         0.0000
     44 H21         0.9480    0.8148    2.9078 H         1 <0>         0.0000
     45 H22         2.7041   -2.3378    0.6655 H         1 <0>         0.0000
@<TRIPOS>BOND
     1    1    2 ar
     2    1    3 ar
     3    2    5 ar
     4    3    6 ar
     5    4    5 ar
     6    4    6 ar
     7    5    7 1
     8    6   23 1
     9    7   17 am
    10    7   19 2
    11    8   13 1
    12    8   18 am
    13    8   20 2
    14    9   15 1
    15   10   15 1
    16   11   12 1
    17   11   14 1
    18   12   22 1
    19   13   14 1
    20   13   21 1
    21   14   16 1
    22   15   22 1
    23   17   18 1
    24    1   24 1
    25    2   25 1
    26    3   26 1
    27    4   27 1
    28    9   28 1
    29    9   29 1
    30    9   30 1
    31   10   31 1
    32   10   32 1
    33   10   33 1
    34   11   34 1
    35   11   35 1
    36   12   36 1
    37   12   37 1
    38   13   38 1
    39   14   39 1
    40   15   40 1
    41   16   41 1
    42   16   42 1
    43   17   43 1
    44   18   44 1
    45   21   45 1
@<TRIPOS>MOLECULE
LIGAND
   45    45     0     0     0
SMALL
NO_CHARGES

@<TRIPOS>ATOM
      1 C1         -0.5558   -3.8525    7.6500 C.ar      1 <0>         0.0000
      2 C2         -0.0131   -3.3653    6.4611 C.ar      1 <0>         0.0000
      3 C3         -0.2084   -5.1243    8.1058 C.ar      1 <0>         0.0000
      4 C4          1.2244   -5.4217    6.1834 C.ar      1 <0>         0.0000
      5 C5          0.8770   -4.1499    5.7277 C.ar      1 <0>         0.0000
      6 C6          0.6817   -5.9089    7.3724 C.ar      1 <0>         0.0000
      7 C7          1.4542   -3.6304    4.4609 C.2       1 <0>         0.0000
      8 C8          1.9325   -1.0133    2.6768 C.2       1 <0>         0.0000
      9 C9         -1.3566    4.2423   -1.1718 C.3       1 <0>         0.0000
     10 C10        -1.3823    5.0762    1.2040 C.3       1 <0>         0.0000
     11 C11         0.2195    0.8307    0.9188 C.3       1 <0>         0.0000
     12 C12        -1.0001    1.1700    0.0549 C.3       1 <0>         0.0000
     13 C13         2.3649   -0.5352    1.2935 C.3       1 <0>         0.0000
     14 C14         1.1534   -0.2750    0.3710 C.3       1 <0>         0.0000
     15 C15        -1.0699    3.9009    0.2855 C.3       1 <0>         0.0000
     16 N1          1.6681    0.0834   -0.9557 N.3       1 <0>         0.0000
     17 N2          0.6851   -2.6985    3.7909 N.am      1 <0>         0.0000
     18 N3          1.1665   -2.1628    2.6216 N.am      1 <0>         0.0000
     19 O1          2.5559   -4.0300    4.0926 O.2       1 <0>         0.0000
     20 O2          2.2299   -0.4108    3.7066 O.2       1 <0>         0.0000
     21 O3          3.2186   -1.5159    0.7230 O.3       1 <0>         0.0000
     22 S1         -2.0492    2.4644    0.7791 S.3       1 <0>         0.0000
     23 Cl1         1.1103   -7.4778    7.9355 Cl        1 <0>         0.0000
     24 H1         -1.2485   -3.2413    8.2210 H         1 <0>         0.0000
     25 H2         -0.2915   -2.3728    6.1162 H         1 <0>         0.0000
     26 H3         -0.6392   -5.4905    9.0340 H         1 <0>         0.0000
     27 H4          1.9195   -6.0313    5.6095 H         1 <0>         0.0000
     28 H5         -2.4105    4.5137   -1.2989 H         1 <0>         0.0000
     29 H6         -0.7576    5.0967   -1.5064 H         1 <0>         0.0000
     30 H7         -1.1520    3.3963   -1.8378 H         1 <0>         0.0000
     31 H8         -2.4367    5.3604    1.1134 H         1 <0>         0.0000
     32 H9         -0.7841    5.9563    0.9431 H         1 <0>         0.0000
     33 H10        -1.1964    4.8333    2.2564 H         1 <0>         0.0000
     34 H11        -0.1531    0.5335    1.9082 H         1 <0>         0.0000
     35 H12         0.7975    1.7493    1.0822 H         1 <0>         0.0000
     36 H13        -1.6176    0.2727   -0.0585 H         1 <0>         0.0000
     37 H14        -0.7009    1.4813   -0.9501 H         1 <0>         0.0000
     38 H15         2.9484    0.3859    1.4229 H         1 <0>         0.0000
     39 H16         0.5915   -1.2082    0.2610 H         1 <0>         0.0000
     40 H17        -0.0132    3.6330    0.3910 H         1 <0>         0.0000
     41 H18         0.8845    0.1717   -1.5934 H         1 <0>         0.0000
     42 H19         2.2416   -0.6802   -1.2969 H         1 <0>         0.0000
     43 H20        -0.2179   -2.4154    4.1557 H         1 <0>         0.0000
     44 H21         0.9630   -2.6038    1.7309 H         1 <0>         0.0000
     45 H22         2.7041   -2.3378    0.6655 H         1 <0>         0.0000
@<TRIPOS>BOND
     1    1    2 ar
     2    1    3 ar
     3    2    5 ar
     4    3    6 ar
     5    4    5 ar
     6    4    6 ar
     7    5    7 1
     8    6   23 1
     9    7   17 am
    10    7   19 2
    11    8   13 1
    12    8   18 am
    13    8   20 2
    14    9   15 1
    15   10   15 1
    16   11   12 1
    17   11   14 1
    18   12   22 1
    19   13   14 1
    20   13   21 1
    21   14   16 1
    22   15   22 1
    23   17   18 1
    24    1   24 1
    25    2   25 1
    26    3   26 1
    27    4   27 1
    28    9   28 1
    29    9   29 1
    30    9   30 1
    31   10   31 1
    32   10   32 1
    33   10   33 1
    34   11   34 1
    35   11   35 1
    36   12   36 1
    37   12   37 1
    38   13   38 1
    39   14   39 1
    40   15   40 1
    41   16   41 1
    42   16   42 1
    43   17   43 1
    44   18   44 1
    45   21   45 1
@<TRIPOS>MOLECULE
LIGAND
   45    45     0     0     0
SMALL
NO_CHARGES

@<TRIPOS>ATOM
      1 C1         -1.7508   -1.5308    8.2465 C.ar      1 <0>         0.0000
      2 C2         -1.4530   -1.2202    6.9197 C.ar      1 <0>         0.0000
      3 C3         -0.8322   -1.2379    9.2545 C.ar      1 <0>         0.0000
      4 C4          0.6821   -0.3238    7.6089 C.ar      1 <0>         0.0000
      5 C5         -0.2366   -0.6167    6.6009 C.ar      1 <0>         0.0000
      6 C6          0.3843   -0.6344    8.9357 C.ar      1 <0>         0.0000
      7 C7          0.0801   -0.2867    5.1871 C.2       1 <0>         0.0000
      8 C8          1.9325   -1.0133    2.6768 C.2       1 <0>         0.0000
      9 C9          0.9992    5.4655    0.4702 C.3       1 <0>         0.0000
     10 C10         0.2949    5.8734    2.8530 C.3       1 <0>         0.0000
     11 C11         0.2195    0.8307    0.9188 C.3       1 <0>         0.0000
     12 C12         0.8590    2.2074    1.1305 C.3       1 <0>         0.0000
     13 C13         2.3649   -0.5352    1.2935 C.3       1 <0>         0.0000
     14 C14         1.1534   -0.2750    0.3710 C.3       1 <0>         0.0000
     15 C15         0.8241    4.8515    1.8540 C.3       1 <0>         0.0000
     16 N1          1.6681    0.0834   -0.9557 N.3       1 <0>         0.0000
     17 N2          1.4238   -0.2520    4.8674 N.am      1 <0>         0.0000
     18 N3          1.7877    0.0290    3.5734 N.am      1 <0>         0.0000
     19 O1         -0.8375   -0.0833    4.3961 O.2       1 <0>         0.0000
     20 O2          1.7602   -2.2018    2.9407 O.2       1 <0>         0.0000
     21 O3          3.2186   -1.5159    0.7230 O.3       1 <0>         0.0000
     22 S1         -0.3102    3.4478    1.7590 S.3       1 <0>         0.0000
     23 Cl1         1.5171   -0.2728   10.1801 Cl        1 <0>         0.0000
     24 H1         -2.6981   -2.0004    8.4946 H         1 <0>         0.0000
     25 H2         -2.1768   -1.4534    6.1430 H         1 <0>         0.0000
     26 H3         -1.0781   -1.4858   10.2839 H         1 <0>         0.0000
     27 H4          1.6301    0.1476    7.3573 H         1 <0>         0.0000
     28 H5          0.0422    5.8509    0.1009 H         1 <0>         0.0000
     29 H6          1.7019    6.3059    0.4928 H         1 <0>         0.0000
     30 H7          1.3622    4.7326   -0.2594 H         1 <0>         0.0000
     31 H8         -0.6729    6.2651    2.5204 H         1 <0>         0.0000
     32 H9          0.9758    6.7263    2.9496 H         1 <0>         0.0000
     33 H10         0.1486    5.4355    3.8470 H         1 <0>         0.0000
     34 H11        -0.6259    0.9652    0.2307 H         1 <0>         0.0000
     35 H12        -0.2197    0.5004    1.8688 H         1 <0>         0.0000
     36 H13         1.2423    2.5738    0.1722 H         1 <0>         0.0000
     37 H14         1.7108    2.1489    1.8142 H         1 <0>         0.0000
     38 H15         2.9484    0.3859    1.4229 H         1 <0>         0.0000
     39 H16         0.5915   -1.2082    0.2610 H         1 <0>         0.0000
     40 H17         1.7903    4.4730    2.2043 H         1 <0>         0.0000
     41 H18         0.8845    0.1717   -1.5934 H         1 <0>         0.0000
     42 H19         2.2416   -0.6802   -1.2969 H         1 <0>         0.0000
     43 H20         2.1281   -0.4306    5.5750 H         1 <0>         0.0000
     44 H21         1.9478    0.9869    3.2798 H         1 <0>         0.0000
     45 H22         2.7041   -2.3378    0.6655 H         1 <0>         0.0000
@<TRIPOS>BOND
     1    1    2 ar
     2    1    3 ar
     3    2    5 ar
     4    3    6 ar
     5    4    5 ar
     6    4    6 ar
     7    5    7 1
     8    6   23 1
     9    7   17 am
    10    7   19 2
    11    8   13 1
    12    8   18 am
    13    8   20 2
    14    9   15 1
    15   10   15 1
    16   11   12 1
    17   11   14 1
    18   12   22 1
    19   13   14 1
    20   13   21 1
    21   14   16 1
    22   15   22 1
    23   17   18 1
    24    1   24 1
    25    2   25 1
    26    3   26 1
    27    4   27 1
    28    9   28 1
    29    9   29 1
    30    9   30 1
    31   10   31 1
    32   10   32 1
    33   10   33 1
    34   11   34 1
    35   11   35 1
    36   12   36 1
    37   12   37 1
    38   13   38 1
    39   14   39 1
    40   15   40 1
    41   16   41 1
    42   16   42 1
    43   17   43 1
    44   18   44 1
    45   21   45 1
@<TRIPOS>MOLECULE
LIGAND
   45    45     0     0     0
SMALL
NO_CHARGES

@<TRIPOS>ATOM
      1 C1          3.2234   -1.0640    9.6374 C.ar      1 <0>         0.0000
      2 C2          3.5913   -0.7258    8.3352 C.ar      1 <0>         0.0000
      3 C3          1.8747   -1.1889    9.9710 C.ar      1 <0>         0.0000
      4 C4          1.2619   -0.6372    7.7001 C.ar      1 <0>         0.0000
      5 C5          2.6105   -0.5124    7.3666 C.ar      1 <0>         0.0000
      6 C6          0.8940   -0.9755    9.0024 C.ar      1 <0>         0.0000
      7 C7          3.0033   -0.1514    5.9797 C.2       1 <0>         0.0000
      8 C8          1.9325   -1.0133    2.6768 C.2       1 <0>         0.0000
      9 C9          0.3770    5.2187   -0.2001 C.3       1 <0>         0.0000
     10 C10         0.1630    6.1072    2.1462 C.3       1 <0>         0.0000
     11 C11         0.2195    0.8307    0.9188 C.3       1 <0>         0.0000
     12 C12         0.8590    2.2074    1.1305 C.3       1 <0>         0.0000
     13 C13         2.3649   -0.5352    1.2935 C.3       1 <0>         0.0000
     14 C14         1.1534   -0.2750    0.3710 C.3       1 <0>         0.0000
     15 C15         0.6016    4.9327    1.2798 C.3       1 <0>         0.0000
     16 N1          1.6681    0.0834   -0.9557 N.3       1 <0>         0.0000
     17 N2          2.1084   -0.5131    4.9911 N.am      1 <0>         0.0000
     18 N3          2.3999   -0.1941    3.6876 N.am      1 <0>         0.0000
     19 O1          4.0607    0.4441    5.7889 O.2       1 <0>         0.0000
     20 O2          1.2610   -2.0296    2.8442 O.2       1 <0>         0.0000
     21 O3          3.2186   -1.5159    0.7230 O.3       1 <0>         0.0000
     22 S1         -0.3102    3.4478    1.7590 S.3       1 <0>         0.0000
     23 Cl1        -0.7699   -1.1303    9.4146 Cl        1 <0>         0.0000
     24 H1          3.9871   -1.2304   10.3914 H         1 <0>         0.0000
     25 H2          4.6454   -0.6312    8.0874 H         1 <0>         0.0000
     26 H3          1.6032   -1.4531   10.9898 H         1 <0>         0.0000
     27 H4          0.4990   -0.4707    6.9423 H         1 <0>         0.0000
     28 H5         -0.6832    5.4173   -0.3928 H         1 <0>         0.0000
     29 H6          0.9382    6.1019   -0.5252 H         1 <0>         0.0000
     30 H7          0.6728    4.3718   -0.8297 H         1 <0>         0.0000
     31 H8         -0.9005    6.3195    1.9896 H         1 <0>         0.0000
     32 H9          0.7176    7.0179    1.8939 H         1 <0>         0.0000
     33 H10         0.3040    5.9029    3.2137 H         1 <0>         0.0000
     34 H11        -0.6259    0.9652    0.2307 H         1 <0>         0.0000
     35 H12        -0.2197    0.5004    1.8688 H         1 <0>         0.0000
     36 H13         1.2423    2.5738    0.1722 H         1 <0>         0.0000
     37 H14         1.7108    2.1489    1.8142 H         1 <0>         0.0000
     38 H15         2.9484    0.3859    1.4229 H         1 <0>         0.0000
     39 H16         0.5915   -1.2082    0.2610 H         1 <0>         0.0000
     40 H17         1.6656    4.7372    1.4509 H         1 <0>         0.0000
     41 H18         0.8845    0.1717   -1.5934 H         1 <0>         0.0000
     42 H19         2.2416   -0.6802   -1.2969 H         1 <0>         0.0000
     43 H20         1.2525   -1.0048    5.2237 H         1 <0>         0.0000
     44 H21         2.9499    0.6302    3.4697 H         1 <0>         0.0000
     45 H22         2.7041   -2.3378    0.6655 H         1 <0>         0.0000
@<TRIPOS>BOND
     1    1    2 ar
     2    1    3 ar
     3    2    5 ar
     4    3    6 ar
     5    4    5 ar
     6    4    6 ar
     7    5    7 1
     8    6   23 1
     9    7   17 am
    10    7   19 2
    11    8   13 1
    12    8   18 am
    13    8   20 2
    14    9   15 1
    15   10   15 1
    16   11   12 1
    17   11   14 1
    18   12   22 1
    19   13   14 1
    20   13   21 1
    21   14   16 1
    22   15   22 1
    23   17   18 1
    24    1   24 1
    25    2   25 1
    26    3   26 1
    27    4   27 1
    28    9   28 1
    29    9   29 1
    30    9   30 1
    31   10   31 1
    32   10   32 1
    33   10   33 1
    34   11   34 1
    35   11   35 1
    36   12   36 1
    37   12   37 1
    38   13   38 1
    39   14   39 1
    40   15   40 1
    41   16   41 1
    42   16   42 1
    43   17   43 1
    44   18   44 1
    45   21   45 1
@<TRIPOS>MOLECULE
LIGAND
   45    45     0     0     0
SMALL
NO_CHARGES

@<TRIPOS>ATOM
      1 C1          1.5193   -1.1198    9.1205 C.ar      1 <0>         0.0000
      2 C2          1.7609   -0.7407    7.8001 C.ar      1 <0>         0.0000
      3 C3          0.2116   -1.1709    9.6034 C.ar      1 <0>         0.0000
      4 C4         -0.6128   -0.4635    7.4454 C.ar      1 <0>         0.0000
      5 C5          0.6949   -0.4125    6.9626 C.ar      1 <0>         0.0000
      6 C6         -0.8544   -0.8427    8.7658 C.ar      1 <0>         0.0000
      7 C7          0.9532   -0.0081    5.5563 C.2       1 <0>         0.0000
      8 C8          1.9325   -1.0133    2.6768 C.2       1 <0>         0.0000
      9 C9         -3.5321   -0.4018   -1.6691 C.3       1 <0>         0.0000
     10 C10        -4.8009   -1.0915    0.3936 C.3       1 <0>         0.0000
     11 C11         0.2195    0.8307    0.9188 C.3       1 <0>         0.0000
     12 C12        -1.2033    0.8526    0.3493 C.3       1 <0>         0.0000
     13 C13         2.3649   -0.5352    1.2935 C.3       1 <0>         0.0000
     14 C14         1.1534   -0.2750    0.3710 C.3       1 <0>         0.0000
     15 C15        -3.6666   -0.2375   -0.1600 C.3       1 <0>         0.0000
     16 N1          1.6681    0.0834   -0.9557 N.3       1 <0>         0.0000
     17 N2          2.1084   -0.5131    4.9911 N.am      1 <0>         0.0000
     18 N3          2.3999   -0.1941    3.6876 N.am      1 <0>         0.0000
     19 O1          0.1465    0.7178    4.9806 O.2       1 <0>         0.0000
     20 O2          1.2610   -2.0296    2.8442 O.2       1 <0>         0.0000
     21 O3          3.2186   -1.5159    0.7230 O.3       1 <0>         0.0000
     22 S1         -2.1131   -0.6921    0.6437 S.3       1 <0>         0.0000
     23 Cl1        -2.4677   -0.9064    9.3621 Cl        1 <0>         0.0000
     24 H1          2.3494   -1.3756    9.7724 H         1 <0>         0.0000
     25 H2          2.7843   -0.7045    7.4354 H         1 <0>         0.0000
     26 H3          0.0388   -1.4681   10.6345 H         1 <0>         0.0000
     27 H4         -1.4425   -0.2075    6.7896 H         1 <0>         0.0000
     28 H5         -3.3350   -1.4497   -1.9217 H         1 <0>         0.0000
     29 H6         -4.4532   -0.1099   -2.1857 H         1 <0>         0.0000
     30 H7         -2.7065    0.1949   -2.0734 H         1 <0>         0.0000
     31 H8         -4.6234   -2.1499    0.1727 H         1 <0>         0.0000
     32 H9         -5.7614   -0.8209   -0.0589 H         1 <0>         0.0000
     33 H10        -4.8932   -0.9935    1.4813 H         1 <0>         0.0000
     34 H11         0.1339    0.7261    2.0087 H         1 <0>         0.0000
     35 H12         0.6781    1.8133    0.7493 H         1 <0>         0.0000
     36 H13        -1.1514    1.0013   -0.7344 H         1 <0>         0.0000
     37 H14        -1.7823    1.6852    0.7589 H         1 <0>         0.0000
     38 H15         2.9484    0.3859    1.4229 H         1 <0>         0.0000
     39 H16         0.5915   -1.2082    0.2610 H         1 <0>         0.0000
     40 H17        -3.8630    0.8149    0.0711 H         1 <0>         0.0000
     41 H18         0.8845    0.1717   -1.5934 H         1 <0>         0.0000
     42 H19         2.2416   -0.6802   -1.2969 H         1 <0>         0.0000
     43 H20         2.7293   -1.1081    5.5287 H         1 <0>         0.0000
     44 H21         2.9499    0.6302    3.4697 H         1 <0>         0.0000
     45 H22         2.7041   -2.3378    0.6655 H         1 <0>         0.0000
@<TRIPOS>BOND
     1    1    2 ar
     2    1    3 ar
     3    2    5 ar
     4    3    6 ar
     5    4    5 ar
     6    4    6 ar
     7    5    7 1
     8    6   23 1
     9    7   17 am
    10    7   19 2
    11    8   13 1
    12    8   18 am
    13    8   20 2
    14    9   15 1
    15   10   15 1
    16   11   12 1
    17   11   14 1
    18   12   22 1
    19   13   14 1
    20   13   21 1
    21   14   16 1
    22   15   22 1
    23   17   18 1
    24    1   24 1
    25    2   25 1
    26    3   26 1
    27    4   27 1
    28    9   28 1
    29    9   29 1
    30    9   30 1
    31   10   31 1
    32   10   32 1
    33   10   33 1
    34   11   34 1
    35   11   35 1
    36   12   36 1
    37   12   37 1
    38   13   38 1
    39   14   39 1
    40   15   40 1
    41   16   41 1
    42   16   42 1
    43   17   43 1
    44   18   44 1
    45   21   45 1
@<TRIPOS>MOLECULE
LIGAND
   45    45     0     0     0
SMALL
NO_CHARGES

@<TRIPOS>ATOM
      1 C1         -0.8688   -1.7203    8.2676 C.ar      1 <0>         0.0000
      2 C2         -0.4721   -1.3756    6.9756 C.ar      1 <0>         0.0000
      3 C3         -1.6746   -0.8524    9.0047 C.ar      1 <0>         0.0000
      4 C4         -1.6869    0.7048    7.1576 C.ar      1 <0>         0.0000
      5 C5         -0.8811   -0.1631    6.4206 C.ar      1 <0>         0.0000
      6 C6         -2.0836    0.3601    8.4497 C.ar      1 <0>         0.0000
      7 C7         -0.4576    0.2036    5.0443 C.2       1 <0>         0.0000
      8 C8          1.9325   -1.0133    2.6768 C.2       1 <0>         0.0000
      9 C9          4.6590    3.8060   -3.6175 C.3       1 <0>         0.0000
     10 C10         2.7384    4.5764   -2.1830 C.3       1 <0>         0.0000
     11 C11         1.5761    0.1765   -1.0474 C.3       1 <0>         0.0000
     12 C12         2.3784    1.4800   -1.1273 C.3       1 <0>         0.0000
     13 C13         2.3649   -0.5352    1.2935 C.3       1 <0>         0.0000
     14 C14         1.1534   -0.2750    0.3710 C.3       1 <0>         0.0000
     15 C15         3.7349    3.4566   -2.4572 C.3       1 <0>         0.0000
     16 N1          0.3597   -1.5080    0.3138 N.3       1 <0>         0.0000
     17 N2          0.7320   -0.3536    4.6161 N.am      1 <0>         0.0000
     18 N3          1.1743   -0.0714    3.3469 N.am      1 <0>         0.0000
     19 O1         -1.1696    0.9461    4.3728 O.2       1 <0>         0.0000
     20 O2          2.2555   -2.1109    3.1269 O.2       1 <0>         0.0000
     21 O3          3.2186   -1.5159    0.7230 O.3       1 <0>         0.0000
     22 S1          2.8465    1.9264   -2.8249 S.3       1 <0>         0.0000
     23 Cl1        -3.0783    1.4303    9.3596 Cl        1 <0>         0.0000
     24 H1         -0.5505   -2.6646    8.6994 H         1 <0>         0.0000
     25 H2          0.1559   -2.0601    6.4111 H         1 <0>         0.0000
     26 H3         -1.9758   -1.1345   10.0103 H         1 <0>         0.0000
     27 H4         -2.0049    1.6499    6.7219 H         1 <0>         0.0000
     28 H5          4.0760    3.9846   -4.5280 H         1 <0>         0.0000
     29 H6          5.2297    4.7186   -3.4120 H         1 <0>         0.0000
     30 H7          5.3674    2.9982   -3.8338 H         1 <0>         0.0000
     31 H8          2.1258    4.7669   -3.0714 H         1 <0>         0.0000
     32 H9          3.2495    5.5128   -1.9328 H         1 <0>         0.0000
     33 H10         2.0576    4.3258   -1.3615 H         1 <0>         0.0000
     34 H11         2.1843   -0.6108   -1.5125 H         1 <0>         0.0000
     35 H12         0.6847    0.2765   -1.6798 H         1 <0>         0.0000
     36 H13         3.3029    1.3655   -0.5514 H         1 <0>         0.0000
     37 H14         1.8267    2.3139   -0.6838 H         1 <0>         0.0000
     38 H15         2.9484    0.3859    1.4229 H         1 <0>         0.0000
     39 H16         0.5249    0.4957    0.8291 H         1 <0>         0.0000
     40 H17         4.3362    3.2822   -1.5586 H         1 <0>         0.0000
     41 H18        -0.4842   -1.3249   -0.2178 H         1 <0>         0.0000
     42 H19         0.0690   -1.7492    1.2550 H         1 <0>         0.0000
     43 H20         1.2684   -0.9594    5.2274 H         1 <0>         0.0000
     44 H21         0.9480    0.8148    2.9078 H         1 <0>         0.0000
     45 H22         2.7041   -2.3378    0.6655 H         1 <0>         0.0000
@<TRIPOS>BOND
     1    1    2 ar
     2    1    3 ar
     3    2    5 ar
     4    3    6 ar
     5    4    5 ar
     6    4    6 ar
     7    5    7 1
     8    6   23 1
     9    7   17 am
    10    7   19 2
    11    8   13 1
    12    8   18 am
    13    8   20 2
    14    9   15 1
    15   10   15 1
    16   11   12 1
    17   11   14 1
    18   12   22 1
    19   13   14 1
    20   13   21 1
    21   14   16 1
    22   15   22 1
    23   17   18 1
    24    1   24 1
    25    2   25 1
    26    3   26 1
    27    4   27 1
    28    9   28 1
    29    9   29 1
    30    9   30 1
    31   10   31 1
    32   10   32 1
    33   10   33 1
    34   11   34 1
    35   11   35 1
    36   12   36 1
    37   12   37 1
    38   13   38 1
    39   14   39 1
    40   15   40 1
    41   16   41 1
    42   16   42 1
    43   17   43 1
    44   18   44 1
    45   21   45 1
@<TRIPOS>MOLECULE
LIGAND
   45    45     0     0     0
SMALL
NO_CHARGES

@<TRIPOS>ATOM
      1 C1         -0.9264   -0.6930    8.4760 C.ar      1 <0>         0.0000
      2 C2         -0.4061   -0.3932    7.2170 C.ar      1 <0>         0.0000
      3 C3         -0.0659   -0.9225    9.5497 C.ar      1 <0>         0.0000
      4 C4          1.8351   -0.5526    8.1053 C.ar      1 <0>         0.0000
      5 C5          0.9746   -0.3231    7.0316 C.ar      1 <0>         0.0000
      6 C6          1.3148   -0.8524    9.3643 C.ar      1 <0>         0.0000
      7 C7          1.5280   -0.0043    5.6900 C.2       1 <0>         0.0000
      8 C8          1.9325   -1.0133    2.6768 C.2       1 <0>         0.0000
      9 C9         -1.2188    2.4860   -4.0715 C.3       1 <0>         0.0000
     10 C10        -0.4191    1.0621   -5.9881 C.3       1 <0>         0.0000
     11 C11         1.5761    0.1765   -1.0474 C.3       1 <0>         0.0000
     12 C12         0.4360    0.4372   -2.0380 C.3       1 <0>         0.0000
     13 C13         2.3649   -0.5352    1.2935 C.3       1 <0>         0.0000
     14 C14         1.1534   -0.2750    0.3710 C.3       1 <0>         0.0000
     15 C15        -0.5876    1.1594   -4.4766 C.3       1 <0>         0.0000
     16 N1          0.3597   -1.5080    0.3138 N.3       1 <0>         0.0000
     17 N2          0.7320   -0.3536    4.6161 N.am      1 <0>         0.0000
     18 N3          1.1743   -0.0714    3.3469 N.am      1 <0>         0.0000
     19 O1          2.6215    0.5492    5.6056 O.2       1 <0>         0.0000
     20 O2          2.2555   -2.1109    3.1269 O.2       1 <0>         0.0000
     21 O3          3.2186   -1.5159    0.7230 O.3       1 <0>         0.0000
     22 S1          1.0200    0.9781   -3.6711 S.3       1 <0>         0.0000
     23 Cl1         2.3759   -1.1353   10.6896 Cl        1 <0>         0.0000
     24 H1         -2.0014   -0.7472    8.6202 H         1 <0>         0.0000
     25 H2         -1.0867   -0.2164    6.3881 H         1 <0>         0.0000
     26 H3         -0.4859   -1.1551   10.5249 H         1 <0>         0.0000
     27 H4          2.9117   -0.4967    7.9578 H         1 <0>         0.0000
     28 H5         -0.5957    3.3223   -4.4074 H         1 <0>         0.0000
     29 H6         -2.2073    2.6127   -4.5270 H         1 <0>         0.0000
     30 H7         -1.3270    2.5723   -2.9843 H         1 <0>         0.0000
     31 H8          0.2163    1.8766   -6.3535 H         1 <0>         0.0000
     32 H9         -1.3827    1.1446   -6.5030 H         1 <0>         0.0000
     33 H10         0.0512    0.1184   -6.2872 H         1 <0>         0.0000
     34 H11         2.1631    1.1018   -0.9736 H         1 <0>         0.0000
     35 H12         2.2520   -0.5707   -1.4824 H         1 <0>         0.0000
     36 H13        -0.2073    1.2295   -1.6408 H         1 <0>         0.0000
     37 H14        -0.1907   -0.4501   -2.1649 H         1 <0>         0.0000
     38 H15         2.9484    0.3859    1.4229 H         1 <0>         0.0000
     39 H16         0.5249    0.4957    0.8291 H         1 <0>         0.0000
     40 H17        -1.2247    0.3378   -4.1321 H         1 <0>         0.0000
     41 H18        -0.4842   -1.3249   -0.2178 H         1 <0>         0.0000
     42 H19         0.0690   -1.7492    1.2550 H         1 <0>         0.0000
     43 H20        -0.1619   -0.8097    4.7623 H         1 <0>         0.0000
     44 H21         0.9480    0.8148    2.9078 H         1 <0>         0.0000
     45 H22         2.7041   -2.3378    0.6655 H         1 <0>         0.0000
@<TRIPOS>BOND
     1    1    2 ar
     2    1    3 ar
     3    2    5 ar
     4    3    6 ar
     5    4    5 ar
     6    4    6 ar
     7    5    7 1
     8    6   23 1
     9    7   17 am
    10    7   19 2
    11    8   13 1
    12    8   18 am
    13    8   20 2
    14    9   15 1
    15   10   15 1
    16   11   12 1
    17   11   14 1
    18   12   22 1
    19   13   14 1
    20   13   21 1
    21   14   16 1
    22   15   22 1
    23   17   18 1
    24    1   24 1
    25    2   25 1
    26    3   26 1
    27    4   27 1
    28    9   28 1
    29    9   29 1
    30    9   30 1
    31   10   31 1
    32   10   32 1
    33   10   33 1
    34   11   34 1
    35   11   35 1
    36   12   36 1
    37   12   37 1
    38   13   38 1
    39   14   39 1
    40   15   40 1
    41   16   41 1
    42   16   42 1
    43   17   43 1
    44   18   44 1
    45   21   45 1
@<TRIPOS>MOLECULE
LIGAND
   45    45     0     0     0
SMALL
NO_CHARGES

@<TRIPOS>ATOM
      1 C1         -2.1901   -5.6246    6.3015 C.ar      1 <0>         0.0000
      2 C2         -1.7709   -5.0911    5.0828 C.ar      1 <0>         0.0000
      3 C3         -1.7948   -5.0260    7.4978 C.ar      1 <0>         0.0000
      4 C4         -0.5609   -3.3604    6.2567 C.ar      1 <0>         0.0000
      5 C5         -0.9563   -3.9590    5.0604 C.ar      1 <0>         0.0000
      6 C6         -0.9802   -3.8940    7.4754 C.ar      1 <0>         0.0000
      7 C7         -0.5097   -3.3917    3.7617 C.2       1 <0>         0.0000
      8 C8          1.9325   -1.0133    2.6768 C.2       1 <0>         0.0000
      9 C9         -1.3566    4.2423   -1.1718 C.3       1 <0>         0.0000
     10 C10        -1.3823    5.0762    1.2040 C.3       1 <0>         0.0000
     11 C11         0.2195    0.8307    0.9188 C.3       1 <0>         0.0000
     12 C12        -1.0001    1.1700    0.0549 C.3       1 <0>         0.0000
     13 C13         2.3649   -0.5352    1.2935 C.3       1 <0>         0.0000
     14 C14         1.1534   -0.2750    0.3710 C.3       1 <0>         0.0000
     15 C15        -1.0699    3.9009    0.2855 C.3       1 <0>         0.0000
     16 N1          1.6681    0.0834   -0.9557 N.3       1 <0>         0.0000
     17 N2          0.6851   -2.6985    3.7909 N.am      1 <0>         0.0000
     18 N3          1.1665   -2.1628    2.6216 N.am      1 <0>         0.0000
     19 O1         -1.1937   -3.5743    2.7577 O.2       1 <0>         0.0000
     20 O2          2.2299   -0.4108    3.7066 O.2       1 <0>         0.0000
     21 O3          3.2186   -1.5159    0.7230 O.3       1 <0>         0.0000
     22 S1         -2.0492    2.4644    0.7791 S.3       1 <0>         0.0000
     23 Cl1        -0.4932   -3.1556    8.9519 Cl        1 <0>         0.0000
     24 H1         -2.8246   -6.5059    6.3187 H         1 <0>         0.0000
     25 H2         -2.0854   -5.5665    4.1572 H         1 <0>         0.0000
     26 H3         -2.1292   -5.4530    8.4398 H         1 <0>         0.0000
     27 H4          0.0741   -2.4771    6.2361 H         1 <0>         0.0000
     28 H5         -2.4105    4.5137   -1.2989 H         1 <0>         0.0000
     29 H6         -0.7576    5.0967   -1.5064 H         1 <0>         0.0000
     30 H7         -1.1520    3.3963   -1.8378 H         1 <0>         0.0000
     31 H8         -2.4367    5.3604    1.1134 H         1 <0>         0.0000
     32 H9         -0.7841    5.9563    0.9431 H         1 <0>         0.0000
     33 H10        -1.1964    4.8333    2.2564 H         1 <0>         0.0000
     34 H11        -0.1531    0.5335    1.9082 H         1 <0>         0.0000
     35 H12         0.7975    1.7493    1.0822 H         1 <0>         0.0000
     36 H13        -1.6176    0.2727   -0.0585 H         1 <0>         0.0000
     37 H14        -0.7009    1.4813   -0.9501 H         1 <0>         0.0000
     38 H15         2.9484    0.3859    1.4229 H         1 <0>         0.0000
     39 H16         0.5915   -1.2082    0.2610 H         1 <0>         0.0000
     40 H17        -0.0132    3.6330    0.3910 H         1 <0>         0.0000
     41 H18         0.8845    0.1717   -1.5934 H         1 <0>         0.0000
     42 H19         2.2416   -0.6802   -1.2969 H         1 <0>         0.0000
     43 H20         1.1968   -2.5873    4.6594 H         1 <0>         0.0000
     44 H21         0.9630   -2.6038    1.7309 H         1 <0>         0.0000
     45 H22         2.7041   -2.3378    0.6655 H         1 <0>         0.0000
@<TRIPOS>BOND
     1    1    2 ar
     2    1    3 ar
     3    2    5 ar
     4    3    6 ar
     5    4    5 ar
     6    4    6 ar
     7    5    7 1
     8    6   23 1
     9    7   17 am
    10    7   19 2
    11    8   13 1
    12    8   18 am
    13    8   20 2
    14    9   15 1
    15   10   15 1
    16   11   12 1
    17   11   14 1
    18   12   22 1
    19   13   14 1
    20   13   21 1
    21   14   16 1
    22   15   22 1
    23   17   18 1
    24    1   24 1
    25    2   25 1
    26    3   26 1
    27    4   27 1
    28    9   28 1
    29    9   29 1
    30    9   30 1
    31   10   31 1
    32   10   32 1
    33   10   33 1
    34   11   34 1
    35   11   35 1
    36   12   36 1
    37   12   37 1
    38   13   38 1
    39   14   39 1
    40   15   40 1
    41   16   41 1
    42   16   42 1
    43   17   43 1
    44   18   44 1
    45   21   45 1
@<TRIPOS>MOLECULE
LIGAND
   45    45     0     0     0
SMALL
NO_CHARGES

@<TRIPOS>ATOM
      1 C1          1.3177   -0.8505    9.3642 C.ar      1 <0>         0.0000
      2 C2          1.8364   -0.5518    8.1043 C.ar      1 <0>         0.0000
      3 C3         -0.0628   -0.9206    9.5514 C.ar      1 <0>         0.0000
      4 C4         -0.4059   -0.3930    7.2188 C.ar      1 <0>         0.0000
      5 C5          0.9746   -0.3231    7.0316 C.ar      1 <0>         0.0000
      6 C6         -0.9246   -0.6918    8.4788 C.ar      1 <0>         0.0000
      7 C7          1.5280   -0.0043    5.6900 C.2       1 <0>         0.0000
      8 C8          1.9325   -1.0133    2.6768 C.2       1 <0>         0.0000
      9 C9          1.1606    4.0721   -2.8209 C.3       1 <0>         0.0000
     10 C10         1.1711    2.6068   -4.8686 C.3       1 <0>         0.0000
     11 C11         1.5761    0.1765   -1.0474 C.3       1 <0>         0.0000
     12 C12         2.3784    1.4800   -1.1273 C.3       1 <0>         0.0000
     13 C13         2.3649   -0.5352    1.2935 C.3       1 <0>         0.0000
     14 C14         1.1534   -0.2750    0.3710 C.3       1 <0>         0.0000
     15 C15         1.2741    2.6470   -3.3486 C.3       1 <0>         0.0000
     16 N1          0.3597   -1.5080    0.3138 N.3       1 <0>         0.0000
     17 N2          0.7320   -0.3536    4.6161 N.am      1 <0>         0.0000
     18 N3          1.1743   -0.0714    3.3469 N.am      1 <0>         0.0000
     19 O1          2.6215    0.5492    5.6056 O.2       1 <0>         0.0000
     20 O2          2.2555   -2.1109    3.1269 O.2       1 <0>         0.0000
     21 O3          3.2186   -1.5159    0.7230 O.3       1 <0>         0.0000
     22 S1          2.8465    1.9264   -2.8249 S.3       1 <0>         0.0000
     23 Cl1        -2.6279   -0.7789    8.7104 Cl        1 <0>         0.0000
     24 H1          1.9889   -1.0289   10.1992 H         1 <0>         0.0000
     25 H2          2.9139   -0.5000    7.9709 H         1 <0>         0.0000
     26 H3         -0.4524   -1.1543   10.5388 H         1 <0>         0.0000
     27 H4         -1.0758   -0.2147    6.3801 H         1 <0>         0.0000
     28 H5          1.9558    4.6980   -3.2410 H         1 <0>         0.0000
     29 H6          0.2046    4.5270   -3.1034 H         1 <0>         0.0000
     30 H7          1.2520    4.1126   -1.7295 H         1 <0>         0.0000
     31 H8          1.9665    3.2101   -5.3202 H         1 <0>         0.0000
     32 H9          0.2154    3.0160   -5.2145 H         1 <0>         0.0000
     33 H10         1.2700    1.5872   -5.2582 H         1 <0>         0.0000
     34 H11         2.1843   -0.6108   -1.5125 H         1 <0>         0.0000
     35 H12         0.6847    0.2765   -1.6798 H         1 <0>         0.0000
     36 H13         3.3029    1.3655   -0.5514 H         1 <0>         0.0000
     37 H14         1.8267    2.3139   -0.6838 H         1 <0>         0.0000
     38 H15         2.9484    0.3859    1.4229 H         1 <0>         0.0000
     39 H16         0.5249    0.4957    0.8291 H         1 <0>         0.0000
     40 H17         0.4716    2.0389   -2.9175 H         1 <0>         0.0000
     41 H18        -0.4842   -1.3249   -0.2178 H         1 <0>         0.0000
     42 H19         0.0690   -1.7492    1.2550 H         1 <0>         0.0000
     43 H20        -0.1619   -0.8097    4.7623 H         1 <0>         0.0000
     44 H21         0.9480    0.8148    2.9078 H         1 <0>         0.0000
     45 H22         2.7041   -2.3378    0.6655 H         1 <0>         0.0000
@<TRIPOS>BOND
     1    1    2 ar
     2    1    3 ar
     3    2    5 ar
     4    3    6 ar
     5    4    5 ar
     6    4    6 ar
     7    5    7 1
     8    6   23 1
     9    7   17 am
    10    7   19 2
    11    8   13 1
    12    8   18 am
    13    8   20 2
    14    9   15 1
    15   10   15 1
    16   11   12 1
    17   11   14 1
    18   12   22 1
    19   13   14 1
    20   13   21 1
    21   14   16 1
    22   15   22 1
    23   17   18 1
    24    1   24 1
    25    2   25 1
    26    3   26 1
    27    4   27 1
    28    9   28 1
    29    9   29 1
    30    9   30 1
    31   10   31 1
    32   10   32 1
    33   10   33 1
    34   11   34 1
    35   11   35 1
    36   12   36 1
    37   12   37 1
    38   13   38 1
    39   14   39 1
    40   15   40 1
    41   16   41 1
    42   16   42 1
    43   17   43 1
    44   18   44 1
    45   21   45 1
@<TRIPOS>MOLECULE
LIGAND
   45    45     0     0     0
SMALL
NO_CHARGES

@<TRIPOS>ATOM
      1 C1         -2.8134   -3.6397    6.9542 C.ar      1 <0>         0.0000
      2 C2         -2.3780   -3.0405    5.7723 C.ar      1 <0>         0.0000
      3 C3         -1.8836   -4.1212    7.8758 C.ar      1 <0>         0.0000
      4 C4         -0.0829   -3.4042    6.4334 C.ar      1 <0>         0.0000
      5 C5         -1.0128   -2.9227    5.5119 C.ar      1 <0>         0.0000
      6 C6         -0.5183   -4.0035    7.6154 C.ar      1 <0>         0.0000
      7 C7         -0.5498   -2.2848    4.2523 C.2       1 <0>         0.0000
      8 C8          1.9325   -1.0133    2.6768 C.2       1 <0>         0.0000
      9 C9         -3.5456    2.3208    3.0565 C.3       1 <0>         0.0000
     10 C10        -4.0220    0.6377    1.2453 C.3       1 <0>         0.0000
     11 C11         0.2195    0.8307    0.9188 C.3       1 <0>         0.0000
     12 C12        -1.0001    1.1700    0.0549 C.3       1 <0>         0.0000
     13 C13         2.3649   -0.5352    1.2935 C.3       1 <0>         0.0000
     14 C14         1.1534   -0.2750    0.3710 C.3       1 <0>         0.0000
     15 C15        -2.9459    1.4397    1.9673 C.3       1 <0>         0.0000
     16 N1          1.6681    0.0834   -0.9557 N.3       1 <0>         0.0000
     17 N2          0.6851   -2.6985    3.7909 N.am      1 <0>         0.0000
     18 N3          1.1665   -2.1628    2.6216 N.am      1 <0>         0.0000
     19 O1         -1.2703   -1.4609    3.6944 O.2       1 <0>         0.0000
     20 O2          2.2299   -0.4108    3.7066 O.2       1 <0>         0.0000
     21 O3          3.2186   -1.5159    0.7230 O.3       1 <0>         0.0000
     22 S1         -2.0492    2.4644    0.7791 S.3       1 <0>         0.0000
     23 Cl1         0.6285   -4.5974    8.7532 Cl        1 <0>         0.0000
     24 H1         -3.8765   -3.7310    7.1569 H         1 <0>         0.0000
     25 H2         -3.1122   -2.6692    5.0619 H         1 <0>         0.0000
     26 H3         -2.2377   -4.5858    8.7924 H         1 <0>         0.0000
     27 H4          0.9816   -3.3106    6.2279 H         1 <0>         0.0000
     28 H5         -4.2705    3.0197    2.6246 H         1 <0>         0.0000
     29 H6         -4.0763    1.7229    3.8059 H         1 <0>         0.0000
     30 H7         -2.7806    2.9152    3.5690 H         1 <0>         0.0000
     31 H8         -4.7543    1.3108    0.7855 H         1 <0>         0.0000
     32 H9         -4.5673   -0.0125    1.9385 H         1 <0>         0.0000
     33 H10        -3.6015    0.0146    0.4477 H         1 <0>         0.0000
     34 H11        -0.1531    0.5335    1.9082 H         1 <0>         0.0000
     35 H12         0.7975    1.7493    1.0822 H         1 <0>         0.0000
     36 H13        -1.6176    0.2727   -0.0585 H         1 <0>         0.0000
     37 H14        -0.7009    1.4813   -0.9501 H         1 <0>         0.0000
     38 H15         2.9484    0.3859    1.4229 H         1 <0>         0.0000
     39 H16         0.5915   -1.2082    0.2610 H         1 <0>         0.0000
     40 H17        -2.2253    0.7496    2.4190 H         1 <0>         0.0000
     41 H18         0.8845    0.1717   -1.5934 H         1 <0>         0.0000
     42 H19         2.2416   -0.6802   -1.2969 H         1 <0>         0.0000
     43 H20         1.2257   -3.3847    4.3060 H         1 <0>         0.0000
     44 H21         0.9630   -2.6038    1.7309 H         1 <0>         0.0000
     45 H22         2.7041   -2.3378    0.6655 H         1 <0>         0.0000
@<TRIPOS>BOND
     1    1    2 ar
     2    1    3 ar
     3    2    5 ar
     4    3    6 ar
     5    4    5 ar
     6    4    6 ar
     7    5    7 1
     8    6   23 1
     9    7   17 am
    10    7   19 2
    11    8   13 1
    12    8   18 am
    13    8   20 2
    14    9   15 1
    15   10   15 1
    16   11   12 1
    17   11   14 1
    18   12   22 1
    19   13   14 1
    20   13   21 1
    21   14   16 1
    22   15   22 1
    23   17   18 1
    24    1   24 1
    25    2   25 1
    26    3   26 1
    27    4   27 1
    28    9   28 1
    29    9   29 1
    30    9   30 1
    31   10   31 1
    32   10   32 1
    33   10   33 1
    34   11   34 1
    35   11   35 1
    36   12   36 1
    37   12   37 1
    38   13   38 1
    39   14   39 1
    40   15   40 1
    41   16   41 1
    42   16   42 1
    43   17   43 1
    44   18   44 1
    45   21   45 1
@<TRIPOS>MOLECULE
LIGAND
   45    45     0     0     0
SMALL
NO_CHARGES

@<TRIPOS>ATOM
      1 C1         -2.3305   -2.8430    7.5352 C.ar      1 <0>         0.0000
      2 C2         -1.8950   -2.2446    6.3529 C.ar      1 <0>         0.0000
      3 C3         -1.8838   -4.1195    7.8766 C.ar      1 <0>         0.0000
      4 C4         -0.5660   -4.1993    5.8532 C.ar      1 <0>         0.0000
      5 C5         -1.0128   -2.9227    5.5119 C.ar      1 <0>         0.0000
      6 C6         -1.0015   -4.7977    7.0355 C.ar      1 <0>         0.0000
      7 C7         -0.5498   -2.2848    4.2523 C.2       1 <0>         0.0000
      8 C8          1.9325   -1.0133    2.6768 C.2       1 <0>         0.0000
      9 C9         -3.5456    2.3208    3.0565 C.3       1 <0>         0.0000
     10 C10        -4.0220    0.6377    1.2453 C.3       1 <0>         0.0000
     11 C11         0.2195    0.8307    0.9188 C.3       1 <0>         0.0000
     12 C12        -1.0001    1.1700    0.0549 C.3       1 <0>         0.0000
     13 C13         2.3649   -0.5352    1.2935 C.3       1 <0>         0.0000
     14 C14         1.1534   -0.2750    0.3710 C.3       1 <0>         0.0000
     15 C15        -2.9459    1.4397    1.9673 C.3       1 <0>         0.0000
     16 N1          1.6681    0.0834   -0.9557 N.3       1 <0>         0.0000
     17 N2          0.6851   -2.6985    3.7909 N.am      1 <0>         0.0000
     18 N3          1.1665   -2.1628    2.6216 N.am      1 <0>         0.0000
     19 O1         -1.2703   -1.4609    3.6944 O.2       1 <0>         0.0000
     20 O2          2.2299   -0.4108    3.7066 O.2       1 <0>         0.0000
     21 O3          3.2186   -1.5159    0.7230 O.3       1 <0>         0.0000
     22 S1         -2.0492    2.4644    0.7791 S.3       1 <0>         0.0000
     23 Cl1        -0.4502   -6.3727    7.4576 Cl        1 <0>         0.0000
     24 H1         -3.0172   -2.3146    8.1901 H         1 <0>         0.0000
     25 H2         -2.2503   -1.2495    6.0977 H         1 <0>         0.0000
     26 H3         -2.2317   -4.5731    8.8010 H         1 <0>         0.0000
     27 H4          0.1227   -4.7258    5.1954 H         1 <0>         0.0000
     28 H5         -4.2705    3.0197    2.6246 H         1 <0>         0.0000
     29 H6         -4.0763    1.7229    3.8059 H         1 <0>         0.0000
     30 H7         -2.7806    2.9152    3.5690 H         1 <0>         0.0000
     31 H8         -4.7543    1.3108    0.7855 H         1 <0>         0.0000
     32 H9         -4.5673   -0.0125    1.9385 H         1 <0>         0.0000
     33 H10        -3.6015    0.0146    0.4477 H         1 <0>         0.0000
     34 H11        -0.1531    0.5335    1.9082 H         1 <0>         0.0000
     35 H12         0.7975    1.7493    1.0822 H         1 <0>         0.0000
     36 H13        -1.6176    0.2727   -0.0585 H         1 <0>         0.0000
     37 H14        -0.7009    1.4813   -0.9501 H         1 <0>         0.0000
     38 H15         2.9484    0.3859    1.4229 H         1 <0>         0.0000
     39 H16         0.5915   -1.2082    0.2610 H         1 <0>         0.0000
     40 H17        -2.2253    0.7496    2.4190 H         1 <0>         0.0000
     41 H18         0.8845    0.1717   -1.5934 H         1 <0>         0.0000
     42 H19         2.2416   -0.6802   -1.2969 H         1 <0>         0.0000
     43 H20         1.2257   -3.3847    4.3060 H         1 <0>         0.0000
     44 H21         0.9630   -2.6038    1.7309 H         1 <0>         0.0000
     45 H22         2.7041   -2.3378    0.6655 H         1 <0>         0.0000
@<TRIPOS>BOND
     1    1    2 ar
     2    1    3 ar
     3    2    5 ar
     4    3    6 ar
     5    4    5 ar
     6    4    6 ar
     7    5    7 1
     8    6   23 1
     9    7   17 am
    10    7   19 2
    11    8   13 1
    12    8   18 am
    13    8   20 2
    14    9   15 1
    15   10   15 1
    16   11   12 1
    17   11   14 1
    18   12   22 1
    19   13   14 1
    20   13   21 1
    21   14   16 1
    22   15   22 1
    23   17   18 1
    24    1   24 1
    25    2   25 1
    26    3   26 1
    27    4   27 1
    28    9   28 1
    29    9   29 1
    30    9   30 1
    31   10   31 1
    32   10   32 1
    33   10   33 1
    34   11   34 1
    35   11   35 1
    36   12   36 1
    37   12   37 1
    38   13   38 1
    39   14   39 1
    40   15   40 1
    41   16   41 1
    42   16   42 1
    43   17   43 1
    44   18   44 1
    45   21   45 1
@<TRIPOS>MOLECULE
LIGAND
   45    45     0     0     0
SMALL
NO_CHARGES

@<TRIPOS>ATOM
      1 C1          1.7016   -1.5775    9.0493 C.ar      1 <0>         0.0000
      2 C2          2.0163   -1.1820    7.7492 C.ar      1 <0>         0.0000
      3 C3          1.0236   -0.7037    9.8993 C.ar      1 <0>         0.0000
      4 C4          0.9750    0.9611    8.1491 C.ar      1 <0>         0.0000
      5 C5          1.6530    0.0872    7.2991 C.ar      1 <0>         0.0000
      6 C6          0.6603    0.5655    9.4492 C.ar      1 <0>         0.0000
      7 C7          1.9892    0.5079    5.9143 C.2       1 <0>         0.0000
      8 C8          1.9325   -1.0133    2.6768 C.2       1 <0>         0.0000
      9 C9          0.2369    5.9907    2.5840 C.3       1 <0>         0.0000
     10 C10         1.4273    4.1074    3.7571 C.3       1 <0>         0.0000
     11 C11         0.2195    0.8307    0.9188 C.3       1 <0>         0.0000
     12 C12         0.8590    2.2074    1.1305 C.3       1 <0>         0.0000
     13 C13         2.3649   -0.5352    1.2935 C.3       1 <0>         0.0000
     14 C14         1.1534   -0.2750    0.3710 C.3       1 <0>         0.0000
     15 C15         0.8895    4.6225    2.4275 C.3       1 <0>         0.0000
     16 N1          1.6681    0.0834   -0.9557 N.3       1 <0>         0.0000
     17 N2          2.1084   -0.5131    4.9911 N.am      1 <0>         0.0000
     18 N3          2.3999   -0.1941    3.6876 N.am      1 <0>         0.0000
     19 O1          2.1244    1.7030    5.6640 O.2       1 <0>         0.0000
     20 O2          1.2610   -2.0296    2.8442 O.2       1 <0>         0.0000
     21 O3          3.2186   -1.5159    0.7230 O.3       1 <0>         0.0000
     22 S1         -0.3102    3.4478    1.7590 S.3       1 <0>         0.0000
     23 Cl1        -0.1768    1.6430   10.4984 Cl        1 <0>         0.0000
     24 H1          1.9843   -2.5659    9.3994 H         1 <0>         0.0000
     25 H2          2.5450   -1.8717    7.0963 H         1 <0>         0.0000
     26 H3          0.7851   -1.0258   10.9097 H         1 <0>         0.0000
     27 H4          0.6923    1.9504    7.7951 H         1 <0>         0.0000
     28 H5         -0.5922    5.9375    3.2984 H         1 <0>         0.0000
     29 H6          0.9490    6.7308    2.9659 H         1 <0>         0.0000
     30 H7         -0.1692    6.3609    1.6357 H         1 <0>         0.0000
     31 H8          0.6165    4.0253    4.4896 H         1 <0>         0.0000
     32 H9          2.1764    4.7890    4.1753 H         1 <0>         0.0000
     33 H10         1.8823    3.1153    3.6574 H         1 <0>         0.0000
     34 H11        -0.6259    0.9652    0.2307 H         1 <0>         0.0000
     35 H12        -0.2197    0.5004    1.8688 H         1 <0>         0.0000
     36 H13         1.2423    2.5738    0.1722 H         1 <0>         0.0000
     37 H14         1.7108    2.1489    1.8142 H         1 <0>         0.0000
     38 H15         2.9484    0.3859    1.4229 H         1 <0>         0.0000
     39 H16         0.5915   -1.2082    0.2610 H         1 <0>         0.0000
     40 H17         1.7141    4.6972    1.7106 H         1 <0>         0.0000
     41 H18         0.8845    0.1717   -1.5934 H         1 <0>         0.0000
     42 H19         2.2416   -0.6802   -1.2969 H         1 <0>         0.0000
     43 H20         1.9830   -1.4798    5.2709 H         1 <0>         0.0000
     44 H21         2.9499    0.6302    3.4697 H         1 <0>         0.0000
     45 H22         2.7041   -2.3378    0.6655 H         1 <0>         0.0000
@<TRIPOS>BOND
     1    1    2 ar
     2    1    3 ar
     3    2    5 ar
     4    3    6 ar
     5    4    5 ar
     6    4    6 ar
     7    5    7 1
     8    6   23 1
     9    7   17 am
    10    7   19 2
    11    8   13 1
    12    8   18 am
    13    8   20 2
    14    9   15 1
    15   10   15 1
    16   11   12 1
    17   11   14 1
    18   12   22 1
    19   13   14 1
    20   13   21 1
    21   14   16 1
    22   15   22 1
    23   17   18 1
    24    1   24 1
    25    2   25 1
    26    3   26 1
    27    4   27 1
    28    9   28 1
    29    9   29 1
    30    9   30 1
    31   10   31 1
    32   10   32 1
    33   10   33 1
    34   11   34 1
    35   11   35 1
    36   12   36 1
    37   12   37 1
    38   13   38 1
    39   14   39 1
    40   15   40 1
    41   16   41 1
    42   16   42 1
    43   17   43 1
    44   18   44 1
    45   21   45 1
@<TRIPOS>MOLECULE
LIGAND
   45    45     0     0     0
SMALL
NO_CHARGES

@<TRIPOS>ATOM
      1 C1         -2.6332   -0.5024    8.0491 C.ar      1 <0>         0.0000
      2 C2         -2.2347   -0.1578    6.7576 C.ar      1 <0>         0.0000
      3 C3         -1.6781   -0.8523    9.0037 C.ar      1 <0>         0.0000
      4 C4          0.0739   -0.5130    7.3751 C.ar      1 <0>         0.0000
      5 C5         -0.8811   -0.1631    6.4206 C.ar      1 <0>         0.0000
      6 C6         -0.3246   -0.8576    8.6667 C.ar      1 <0>         0.0000
      7 C7         -0.4576    0.2036    5.0443 C.2       1 <0>         0.0000
      8 C8          1.9325   -1.0133    2.6768 C.2       1 <0>         0.0000
      9 C9         -2.8728    0.1140   -1.9046 C.3       1 <0>         0.0000
     10 C10        -3.0339    2.5013   -2.6891 C.3       1 <0>         0.0000
     11 C11         1.5761    0.1765   -1.0474 C.3       1 <0>         0.0000
     12 C12         0.4360    0.4372   -2.0380 C.3       1 <0>         0.0000
     13 C13         2.3649   -0.5352    1.2935 C.3       1 <0>         0.0000
     14 C14         1.1534   -0.2750    0.3710 C.3       1 <0>         0.0000
     15 C15        -2.1244    1.2902   -2.5202 C.3       1 <0>         0.0000
     16 N1          0.3597   -1.5080    0.3138 N.3       1 <0>         0.0000
     17 N2          0.7320   -0.3536    4.6161 N.am      1 <0>         0.0000
     18 N3          1.1743   -0.0714    3.3469 N.am      1 <0>         0.0000
     19 O1         -1.1696    0.9461    4.3728 O.2       1 <0>         0.0000
     20 O2          2.2555   -2.1109    3.1269 O.2       1 <0>         0.0000
     21 O3          3.2186   -1.5159    0.7230 O.3       1 <0>         0.0000
     22 S1         -0.7139    1.7277   -1.4786 S.3       1 <0>         0.0000
     23 Cl1         0.8534   -1.2889    9.8452 Cl        1 <0>         0.0000
     24 H1         -3.6870   -0.4979    8.3114 H         1 <0>         0.0000
     25 H2         -2.9882    0.1130    6.0224 H         1 <0>         0.0000
     26 H3         -2.0036   -1.1185   10.0060 H         1 <0>         0.0000
     27 H4          1.1292   -0.5157    7.1095 H         1 <0>         0.0000
     28 H5         -3.2728    0.3895   -0.9223 H         1 <0>         0.0000
     29 H6         -3.7211   -0.1892   -2.5283 H         1 <0>         0.0000
     30 H7         -2.2215   -0.7559   -1.7625 H         1 <0>         0.0000
     31 H8         -3.4363    2.8134   -1.7189 H         1 <0>         0.0000
     32 H9         -3.8871    2.2721   -3.3372 H         1 <0>         0.0000
     33 H10        -2.4990    3.3582   -3.1144 H         1 <0>         0.0000
     34 H11         2.1631    1.1018   -0.9736 H         1 <0>         0.0000
     35 H12         2.2520   -0.5707   -1.4824 H         1 <0>         0.0000
     36 H13        -0.1421   -0.4839   -2.1668 H         1 <0>         0.0000
     37 H14         0.8216    0.7132   -3.0237 H         1 <0>         0.0000
     38 H15         2.9484    0.3859    1.4229 H         1 <0>         0.0000
     39 H16         0.5249    0.4957    0.8291 H         1 <0>         0.0000
     40 H17        -1.7333    0.9948   -3.4996 H         1 <0>         0.0000
     41 H18        -0.4842   -1.3249   -0.2178 H         1 <0>         0.0000
     42 H19         0.0690   -1.7492    1.2550 H         1 <0>         0.0000
     43 H20         1.2684   -0.9594    5.2274 H         1 <0>         0.0000
     44 H21         0.9480    0.8148    2.9078 H         1 <0>         0.0000
     45 H22         2.7041   -2.3378    0.6655 H         1 <0>         0.0000
@<TRIPOS>BOND
     1    1    2 ar
     2    1    3 ar
     3    2    5 ar
     4    3    6 ar
     5    4    5 ar
     6    4    6 ar
     7    5    7 1
     8    6   23 1
     9    7   17 am
    10    7   19 2
    11    8   13 1
    12    8   18 am
    13    8   20 2
    14    9   15 1
    15   10   15 1
    16   11   12 1
    17   11   14 1
    18   12   22 1
    19   13   14 1
    20   13   21 1
    21   14   16 1
    22   15   22 1
    23   17   18 1
    24    1   24 1
    25    2   25 1
    26    3   26 1
    27    4   27 1
    28    9   28 1
    29    9   29 1
    30    9   30 1
    31   10   31 1
    32   10   32 1
    33   10   33 1
    34   11   34 1
    35   11   35 1
    36   12   36 1
    37   12   37 1
    38   13   38 1
    39   14   39 1
    40   15   40 1
    41   16   41 1
    42   16   42 1
    43   17   43 1
    44   18   44 1
    45   21   45 1
