@<TRIPOS>MOLECULE
LIGAND_00001
    65    69     1     0     0
SMALL
USER_CHARGES
****
Generated from the CSD

@<TRIPOS>ATOM
     1 C1      -0.7027  -3.3903 -14.9781   C.ar      1 RES1   0.0000
     2 H2      -1.7635  -3.4211 -14.7543   H         1 RES1   0.0000
     3 C3       2.0037  -3.2747 -15.5205   C.ar      1 RES1   0.0000
     4 H4       3.0672  -3.2194 -15.7282   H         1 RES1   0.0000
     5 C5       0.0599  -4.5461 -14.8386   C.ar      1 RES1   0.0000
     6 C6      -0.1343  -2.1985 -15.3916   C.ar      1 RES1   0.0000
     7 H7      -0.7388  -1.3050 -15.5067   H         1 RES1   0.0000
     8 C8       1.2073  -2.1727 -15.6497   C.ar      1 RES1   0.0000
     9 C9       1.4207  -4.4628 -15.1196   C.ar      1 RES1   0.0000
    10 H10      2.0424  -5.3462 -15.0278   H         1 RES1   0.0000
    11 C11     -0.5410  -5.8434 -14.3880   C.2       1 RES1   0.0000
    12 F12      1.7741  -1.0026 -16.0515   F         1 RES1   0.0000
    13 N13     -1.2406  -7.9410 -14.1570   N.am      1 RES1   0.0000
    14 C14     -1.5106  -9.4109 -14.3092   C.3       1 RES1   0.0000
    15 H15     -1.0788  -9.7377 -15.2540   H         1 RES1   0.0000
    16 C16     -2.0882  -7.8386 -11.7803   C.3       1 RES1   0.0000
    17 H17     -2.6361  -7.1177 -11.1770   H         1 RES1   0.0000
    18 H18     -2.7550  -8.6688 -12.0043   H         1 RES1   0.0000
    19 H19     -1.2602  -8.2192 -11.1860   H         1 RES1   0.0000
    20 C20     -1.1594  -5.9688 -13.1688   C.2       1 RES1   0.0000
    21 C21     -1.4160  -4.9157 -12.1531   C.ar      1 RES1   0.0000
    22 O22     -0.1808  -7.5094 -16.1020   O.2       1 RES1   0.0000
    23 C23     -0.6007  -7.1206 -15.0199   C.2       1 RES1   0.0000
    24 N24     -1.5984  -7.2184 -13.0119   N.pl3     1 RES1   0.0000
    25 C25     -1.0832 -11.6911 -13.3372   C.3       1 RES1   0.0000
    26 H26     -0.6331 -12.2196 -12.4981   H         1 RES1   0.0000
    27 H27     -0.6343 -12.0371 -14.2671   H         1 RES1   0.0000
    28 C28     -3.2435 -11.2227 -14.4623   C.3       1 RES1   0.0000
    29 H29     -2.8590 -11.5671 -15.4212   H         1 RES1   0.0000
    30 H30     -4.3132 -11.4194 -14.4083   H         1 RES1   0.0000
    31 C31     -3.0042  -9.7256 -14.3371   C.3       1 RES1   0.0000
    32 H32     -3.4589  -9.2199 -15.1876   H         1 RES1   0.0000
    33 H33     -3.4608  -9.3678 -13.4154   H         1 RES1   0.0000
    34 C34     -0.8406 -10.1997 -13.1835   C.3       1 RES1   0.0000
    35 H35     -1.2472  -9.8704 -12.2284   H         1 RES1   0.0000
    36 H36      0.2315 -10.0101 -13.2063   H         1 RES1   0.0000
    37 N37     -2.5535 -11.9614 -13.3641   N.4       1 RES1   1.0000
    38 H38     -2.9545 -11.6761 -12.4764   H         1 RES1   0.0000
    39 H39     -2.7004 -12.9568 -13.4974   H         1 RES1   0.0000
    40 N40     -2.6992  -4.6898 -11.8302   N.ar      1 RES1   0.0000
    41 C41     -0.7580  -3.2243 -10.6488   C.ar      1 RES1   0.0000
    42 H42      0.0265  -2.6440 -10.1743   H         1 RES1   0.0000
    43 N43     -4.2293  -3.4806 -10.6241   N.pl3     1 RES1   0.0000
    44 H44     -4.4254  -2.7909  -9.8986   H         1 RES1   0.0000
    45 C45     -0.3913  -4.1856 -11.5689   C.ar      1 RES1   0.0000
    46 H46      0.6486  -4.3597 -11.8246   H         1 RES1   0.0000
    47 C47     -2.9451  -3.7222 -10.9322   C.ar      1 RES1   0.0000
    48 N48     -2.0280  -2.9671 -10.3100   N.ar      1 RES1   0.0000
    49 C49     -5.3623  -4.1895 -11.2186   C.3       1 RES1   0.0000
    50 H50     -5.2729  -5.2605 -10.9791   H         1 RES1   0.0000
    51 C51     -5.4144  -4.0346 -12.7258   C.ar      1 RES1   0.0000
    52 C52     -6.6342  -3.6522 -10.5729   C.3       1 RES1   0.0000
    53 H53     -7.5106  -4.1701 -10.9568   H         1 RES1   0.0000
    54 H54     -6.6073  -3.7862  -9.4936   H         1 RES1   0.0000
    55 H55     -6.7509  -2.5905 -10.7796   H         1 RES1   0.0000
    56 C56     -5.5033  -3.7362 -15.4941   C.ar      1 RES1   0.0000
    57 H57     -5.5373  -3.6204 -16.5723   H         1 RES1   0.0000
    58 C58     -4.9239  -2.8873 -13.3325   C.ar      1 RES1   0.0000
    59 H59     -4.5012  -2.0968 -12.7212   H         1 RES1   0.0000
    60 C60     -5.9528  -5.0298 -13.5300   C.ar      1 RES1   0.0000
    61 H61     -6.3442  -5.9352 -13.0781   H         1 RES1   0.0000
    62 C62     -5.9961  -4.8802 -14.9059   C.ar      1 RES1   0.0000
    63 H63     -6.4192  -5.6666 -15.5219   H         1 RES1   0.0000
    64 C64     -4.9672  -2.7398 -14.7084   C.ar      1 RES1   0.0000
    65 H65     -4.5781  -1.8375 -15.1684   H         1 RES1   0.0000
@<TRIPOS>BOND
     1     1     5   ar
     2     1     6   ar
     3     1     2    1
     4     3     8   ar
     5     3     9   ar
     6     3     4    1
     7     5     9   ar
     8     5    11    1
     9     6     8   ar
    10     6     7    1
    11     8    12    1
    12     9    10    1
    13    11    20    2
    14    11    23    1
    15    13    14    1
    16    13    23   am
    17    13    24    1
    18    14    31    1
    19    14    34    1
    20    14    15    1
    21    16    24    1
    22    16    17    1
    23    16    18    1
    24    16    19    1
    25    20    21    1
    26    20    24    1
    27    21    40   ar
    28    21    45   ar
    29    22    23    2
    30    25    34    1
    31    25    37    1
    32    25    26    1
    33    25    27    1
    34    28    31    1
    35    28    37    1
    36    28    29    1
    37    28    30    1
    38    31    32    1
    39    31    33    1
    40    34    35    1
    41    34    36    1
    42    37    38    1
    43    37    39    1
    44    40    47   ar
    45    41    45   ar
    46    41    48   ar
    47    41    42    1
    48    43    47    1
    49    43    49    1
    50    43    44    1
    51    45    46    1
    52    47    48   ar
    53    49    51    1
    54    49    52    1
    55    49    50    1
    56    51    58   ar
    57    51    60   ar
    58    52    53    1
    59    52    54    1
    60    52    55    1
    61    56    62   ar
    62    56    64   ar
    63    56    57    1
    64    58    64   ar
    65    58    59    1
    66    60    62   ar
    67    60    61    1
    68    62    63    1
    69    64    65    1
@<TRIPOS>SUBSTRUCTURE
     1 RES1        1 GROUP             0 ****  ****    0  
@<TRIPOS>MOLECULE
LIGAND_00002
    65    69     1     0     0
SMALL
USER_CHARGES
****
Generated from the CSD

@<TRIPOS>ATOM
     1 C1      -0.2988  -3.8980 -15.9721   C.ar      1 RES1   0.0000
     2 H2      -1.0903  -4.3230 -16.5799   H         1 RES1   0.0000
     3 C3       1.6945  -2.7748 -14.4239   C.ar      1 RES1   0.0000
     4 H4       2.4727  -2.3235 -13.8173   H         1 RES1   0.0000
     5 C5       0.1047  -4.5578 -14.8151   C.ar      1 RES1   0.0000
     6 C6       0.2853  -2.7057 -16.3617   C.ar      1 RES1   0.0000
     7 H7      -0.0294  -2.2036 -17.2704   H         1 RES1   0.0000
     8 C8       1.2668  -2.1741 -15.5735   C.ar      1 RES1   0.0000
     9 C9       1.1121  -3.9729 -14.0530   C.ar      1 RES1   0.0000
    10 H10      1.4549  -4.4641 -13.1495   H         1 RES1   0.0000
    11 C11     -0.5212  -5.8480 -14.3783   C.2       1 RES1   0.0000
    12 F12      1.8419  -0.9989 -15.9476   F         1 RES1   0.0000
    13 N13     -1.2541  -7.9362 -14.1654   N.am      1 RES1   0.0000
    14 C14     -1.5426  -9.4015 -14.3270   C.3       1 RES1   0.0000
    15 H15     -1.1014  -9.7312 -15.2665   H         1 RES1   0.0000
    16 C16     -2.1353  -7.8300 -11.8012   C.3       1 RES1   0.0000
    17 H17     -2.6801  -7.1030 -11.2025   H         1 RES1   0.0000
    18 H18     -2.8118  -8.6486 -12.0381   H         1 RES1   0.0000
    19 H19     -1.3218  -8.2261 -11.1970   H         1 RES1   0.0000
    20 C20     -1.1594  -5.9688 -13.1688   C.2       1 RES1   0.0000
    21 C21     -1.4160  -4.9157 -12.1531   C.ar      1 RES1   0.0000
    22 O22     -0.1595  -7.5129 -16.0929   O.2       1 RES1   0.0000
    23 C23     -0.5898  -7.1220 -15.0157   C.2       1 RES1   0.0000
    24 N24     -1.6185  -7.2126 -13.0230   N.pl3     1 RES1   0.0000
    25 C25     -1.1626 -11.6910 -13.3571   C.3       1 RES1   0.0000
    26 H26     -0.7328 -12.2288 -12.5133   H         1 RES1   0.0000
    27 H27     -0.7047 -12.0402 -14.2814   H         1 RES1   0.0000
    28 C28     -3.2987 -11.1877 -14.5128   C.3       1 RES1   0.0000
    29 H29     -2.9048 -11.5343 -15.4671   H         1 RES1   0.0000
    30 H30     -4.3718 -11.3693 -14.4756   H         1 RES1   0.0000
    31 C31     -3.0400  -9.6947 -14.3785   C.3       1 RES1   0.0000
    32 H32     -3.4745  -9.1796 -15.2339   H         1 RES1   0.0000
    33 H33     -3.5053  -9.3336 -13.4625   H         1 RES1   0.0000
    34 C34     -0.9011 -10.2037 -13.1943   C.3       1 RES1   0.0000
    35 H35     -1.3173  -9.8719 -12.2442   H         1 RES1   0.0000
    36 H36      0.1739 -10.0295 -13.2003   H         1 RES1   0.0000
    37 N37     -2.6361 -11.9400 -13.4071   N.4       1 RES1   1.0000
    38 H38     -3.0462 -11.6521 -12.5244   H         1 RES1   0.0000
    39 H39     -2.7951 -12.9328 -13.5462   H         1 RES1   0.0000
    40 N40     -0.8662  -5.0993 -10.9425   N.ar      1 RES1   0.0000
    41 C41     -2.3708  -2.8985 -11.3940   C.ar      1 RES1   0.0000
    42 H42     -2.9709  -2.0147 -11.5841   H         1 RES1   0.0000
    43 N43     -0.5809  -4.3597  -8.7908   N.pl3     1 RES1   0.0000
    44 H44     -0.7062  -3.6268  -8.0926   H         1 RES1   0.0000
    45 C45     -2.1938  -3.7996 -12.4246   C.ar      1 RES1   0.0000
    46 H46     -2.6438  -3.6432 -13.3994   H         1 RES1   0.0000
    47 C47     -1.1127  -4.1667 -10.0084   C.ar      1 RES1   0.0000
    48 N48     -1.8442  -3.0549 -10.1726   N.ar      1 RES1   0.0000
    49 C49      0.2204  -5.5265  -8.4218   C.3       1 RES1   0.0000
    50 H50      1.0992  -5.5740  -9.0834   H         1 RES1   0.0000
    51 C51     -0.5533  -6.8237  -8.5530   C.ar      1 RES1   0.0000
    52 C52      0.7012  -5.3231  -6.9898   C.3       1 RES1   0.0000
    53 H53      1.3323  -6.1508  -6.6731   H         1 RES1   0.0000
    54 H54      1.2776  -4.4045  -6.9014   H         1 RES1   0.0000
    55 H55     -0.1429  -5.2603  -6.3064   H         1 RES1   0.0000
    56 C56     -1.9880  -9.1997  -8.7911   C.ar      1 RES1   0.0000
    57 H57     -2.5467 -10.1250  -8.8846   H         1 RES1   0.0000
    58 C58     -1.9311  -6.8406  -8.3906   C.ar      1 RES1   0.0000
    59 H59     -2.4557  -5.9174  -8.1677   H         1 RES1   0.0000
    60 C60      0.0945  -8.0187  -8.8345   C.ar      1 RES1   0.0000
    61 H61      1.1716  -8.0306  -8.9640   H         1 RES1   0.0000
    62 C62     -0.6200  -9.1989  -8.9530   C.ar      1 RES1   0.0000
    63 H63     -0.1004 -10.1253  -9.1740   H         1 RES1   0.0000
    64 C64     -2.6439  -8.0215  -8.5101   C.ar      1 RES1   0.0000
    65 H65     -3.7213  -8.0184  -8.3821   H         1 RES1   0.0000
@<TRIPOS>BOND
     1     1     5   ar
     2     1     6   ar
     3     1     2    1
     4     3     8   ar
     5     3     9   ar
     6     3     4    1
     7     5     9   ar
     8     5    11    1
     9     6     8   ar
    10     6     7    1
    11     8    12    1
    12     9    10    1
    13    11    20    2
    14    11    23    1
    15    13    14    1
    16    13    23   am
    17    13    24    1
    18    14    31    1
    19    14    34    1
    20    14    15    1
    21    16    24    1
    22    16    17    1
    23    16    18    1
    24    16    19    1
    25    20    21    1
    26    20    24    1
    27    21    40   ar
    28    21    45   ar
    29    22    23    2
    30    25    34    1
    31    25    37    1
    32    25    26    1
    33    25    27    1
    34    28    31    1
    35    28    37    1
    36    28    29    1
    37    28    30    1
    38    31    32    1
    39    31    33    1
    40    34    35    1
    41    34    36    1
    42    37    38    1
    43    37    39    1
    44    40    47   ar
    45    41    45   ar
    46    41    48   ar
    47    41    42    1
    48    43    47    1
    49    43    49    1
    50    43    44    1
    51    45    46    1
    52    47    48   ar
    53    49    51    1
    54    49    52    1
    55    49    50    1
    56    51    58   ar
    57    51    60   ar
    58    52    53    1
    59    52    54    1
    60    52    55    1
    61    56    62   ar
    62    56    64   ar
    63    56    57    1
    64    58    64   ar
    65    58    59    1
    66    60    62   ar
    67    60    61    1
    68    62    63    1
    69    64    65    1
@<TRIPOS>SUBSTRUCTURE
     1 RES1        1 GROUP             0 ****  ****    0  
@<TRIPOS>MOLECULE
LIGAND_00003
    65    69     1     0     0
SMALL
USER_CHARGES
****
Generated from the CSD

@<TRIPOS>ATOM
     1 C1      -0.3701  -3.8964 -15.9918   C.ar      1 RES1   0.0000
     2 H2      -1.1642  -4.3349 -16.5863   H         1 RES1   0.0000
     3 C3       1.6297  -2.7392 -14.4773   C.ar      1 RES1   0.0000
     4 H4       2.4102  -2.2746 -13.8839   H         1 RES1   0.0000
     5 C5       0.0599  -4.5461 -14.8386   C.ar      1 RES1   0.0000
     6 C6       0.1911  -2.6974 -16.3942   C.ar      1 RES1   0.0000
     7 H7      -0.1441  -2.2032 -17.2999   H         1 RES1   0.0000
     8 C8       1.1764  -2.1489 -15.6225   C.ar      1 RES1   0.0000
     9 C9       1.0700  -3.9440 -14.0935   C.ar      1 RES1   0.0000
    10 H10      1.4331  -4.4269 -13.1935   H         1 RES1   0.0000
    11 C11     -0.5410  -5.8434 -14.3880   C.2       1 RES1   0.0000
    12 F12      1.7291  -0.9670 -16.0092   F         1 RES1   0.0000
    13 N13     -1.2406  -7.9410 -14.1570   N.am      1 RES1   0.0000
    14 C14     -1.5106  -9.4109 -14.3092   C.3       1 RES1   0.0000
    15 H15     -1.0788  -9.7377 -15.2540   H         1 RES1   0.0000
    16 C16     -2.0882  -7.8386 -11.7803   C.3       1 RES1   0.0000
    17 H17     -2.6361  -7.1177 -11.1770   H         1 RES1   0.0000
    18 H18     -2.7550  -8.6688 -12.0043   H         1 RES1   0.0000
    19 H19     -1.2602  -8.2192 -11.1860   H         1 RES1   0.0000
    20 C20     -1.1594  -5.9688 -13.1688   C.2       1 RES1   0.0000
    21 C21     -1.4160  -4.9157 -12.1531   C.ar      1 RES1   0.0000
    22 O22     -0.1808  -7.5094 -16.1020   O.2       1 RES1   0.0000
    23 C23     -0.6007  -7.1206 -15.0199   C.2       1 RES1   0.0000
    24 N24     -1.5984  -7.2184 -13.0119   N.pl3     1 RES1   0.0000
    25 C25     -1.0832 -11.6911 -13.3372   C.3       1 RES1   0.0000
    26 H26     -0.6331 -12.2196 -12.4981   H         1 RES1   0.0000
    27 H27     -0.6343 -12.0371 -14.2671   H         1 RES1   0.0000
    28 C28     -3.2435 -11.2227 -14.4623   C.3       1 RES1   0.0000
    29 H29     -2.8590 -11.5671 -15.4212   H         1 RES1   0.0000
    30 H30     -4.3132 -11.4194 -14.4083   H         1 RES1   0.0000
    31 C31     -3.0042  -9.7256 -14.3371   C.3       1 RES1   0.0000
    32 H32     -3.4589  -9.2199 -15.1876   H         1 RES1   0.0000
    33 H33     -3.4608  -9.3678 -13.4154   H         1 RES1   0.0000
    34 C34     -0.8406 -10.1997 -13.1835   C.3       1 RES1   0.0000
    35 H35     -1.2472  -9.8704 -12.2284   H         1 RES1   0.0000
    36 H36      0.2315 -10.0101 -13.2063   H         1 RES1   0.0000
    37 N37     -2.5535 -11.9614 -13.3641   N.4       1 RES1   1.0000
    38 H38     -2.9545 -11.6761 -12.4764   H         1 RES1   0.0000
    39 H39     -2.7004 -12.9568 -13.4974   H         1 RES1   0.0000
    40 N40     -0.8662  -5.0993 -10.9425   N.ar      1 RES1   0.0000
    41 C41     -2.3708  -2.8985 -11.3940   C.ar      1 RES1   0.0000
    42 H42     -2.9709  -2.0147 -11.5841   H         1 RES1   0.0000
    43 N43     -0.5809  -4.3597  -8.7908   N.pl3     1 RES1   0.0000
    44 H44     -0.0746  -5.2289  -8.6223   H         1 RES1   0.0000
    45 C45     -2.1938  -3.7996 -12.4246   C.ar      1 RES1   0.0000
    46 H46     -2.6438  -3.6432 -13.3994   H         1 RES1   0.0000
    47 C47     -1.1127  -4.1667 -10.0084   C.ar      1 RES1   0.0000
    48 N48     -1.8442  -3.0549 -10.1726   N.ar      1 RES1   0.0000
    49 C49     -0.7359  -3.4302  -7.6720   C.3       1 RES1   0.0000
    50 H50     -1.8076  -3.3362  -7.4377   H         1 RES1   0.0000
    51 C51     -0.1876  -2.0520  -7.9855   C.ar      1 RES1   0.0000
    52 C52     -0.0268  -4.0357  -6.4663   C.3       1 RES1   0.0000
    53 H53     -0.1384  -3.3977  -5.5920   H         1 RES1   0.0000
    54 H54     -0.4374  -5.0142  -6.2262   H         1 RES1   0.0000
    55 H55      1.0363  -4.1541  -6.6653   H         1 RES1   0.0000
    56 C56      0.8302   0.4742  -8.5711   C.ar      1 RES1   0.0000
    57 H57      1.2260   1.4581  -8.7997   H         1 RES1   0.0000
    58 C58      0.8745  -1.9008  -8.8652   C.ar      1 RES1   0.0000
    59 H59      1.3141  -2.7770  -9.3302   H         1 RES1   0.0000
    60 C60     -0.7302  -0.9154  -7.4017   C.ar      1 RES1   0.0000
    61 H61     -1.5601  -1.0089  -6.7092   H         1 RES1   0.0000
    62 C62     -0.2234   0.3396  -7.6940   C.ar      1 RES1   0.0000
    63 H63     -0.6579   1.2191  -7.2307   H         1 RES1   0.0000
    64 C64      1.3794  -0.6451  -9.1569   C.ar      1 RES1   0.0000
    65 H65      2.2092  -0.5427  -9.8483   H         1 RES1   0.0000
@<TRIPOS>BOND
     1     1     5   ar
     2     1     6   ar
     3     1     2    1
     4     3     8   ar
     5     3     9   ar
     6     3     4    1
     7     5     9   ar
     8     5    11    1
     9     6     8   ar
    10     6     7    1
    11     8    12    1
    12     9    10    1
    13    11    20    2
    14    11    23    1
    15    13    14    1
    16    13    23   am
    17    13    24    1
    18    14    31    1
    19    14    34    1
    20    14    15    1
    21    16    24    1
    22    16    17    1
    23    16    18    1
    24    16    19    1
    25    20    21    1
    26    20    24    1
    27    21    40   ar
    28    21    45   ar
    29    22    23    2
    30    25    34    1
    31    25    37    1
    32    25    26    1
    33    25    27    1
    34    28    31    1
    35    28    37    1
    36    28    29    1
    37    28    30    1
    38    31    32    1
    39    31    33    1
    40    34    35    1
    41    34    36    1
    42    37    38    1
    43    37    39    1
    44    40    47   ar
    45    41    45   ar
    46    41    48   ar
    47    41    42    1
    48    43    47    1
    49    43    49    1
    50    43    44    1
    51    45    46    1
    52    47    48   ar
    53    49    51    1
    54    49    52    1
    55    49    50    1
    56    51    58   ar
    57    51    60   ar
    58    52    53    1
    59    52    54    1
    60    52    55    1
    61    56    62   ar
    62    56    64   ar
    63    56    57    1
    64    58    64   ar
    65    58    59    1
    66    60    62   ar
    67    60    61    1
    68    62    63    1
    69    64    65    1
@<TRIPOS>SUBSTRUCTURE
     1 RES1        1 GROUP             0 ****  ****    0  
@<TRIPOS>MOLECULE
LIGAND_00004
    65    69     1     0     0
SMALL
USER_CHARGES
****
Generated from the CSD

@<TRIPOS>ATOM
     1 C1      -0.7027  -3.3903 -14.9781   C.ar      1 RES1   0.0000
     2 H2      -1.7635  -3.4211 -14.7543   H         1 RES1   0.0000
     3 C3       2.0037  -3.2747 -15.5205   C.ar      1 RES1   0.0000
     4 H4       3.0672  -3.2194 -15.7282   H         1 RES1   0.0000
     5 C5       0.0599  -4.5461 -14.8386   C.ar      1 RES1   0.0000
     6 C6      -0.1343  -2.1985 -15.3916   C.ar      1 RES1   0.0000
     7 H7      -0.7388  -1.3050 -15.5067   H         1 RES1   0.0000
     8 C8       1.2073  -2.1727 -15.6497   C.ar      1 RES1   0.0000
     9 C9       1.4207  -4.4628 -15.1196   C.ar      1 RES1   0.0000
    10 H10      2.0424  -5.3462 -15.0278   H         1 RES1   0.0000
    11 C11     -0.5410  -5.8434 -14.3880   C.2       1 RES1   0.0000
    12 F12      1.7741  -1.0026 -16.0515   F         1 RES1   0.0000
    13 N13     -1.2406  -7.9410 -14.1570   N.am      1 RES1   0.0000
    14 C14     -1.5106  -9.4109 -14.3092   C.3       1 RES1   0.0000
    15 H15     -1.0788  -9.7377 -15.2540   H         1 RES1   0.0000
    16 C16     -2.0882  -7.8386 -11.7803   C.3       1 RES1   0.0000
    17 H17     -2.6361  -7.1177 -11.1770   H         1 RES1   0.0000
    18 H18     -2.7550  -8.6688 -12.0043   H         1 RES1   0.0000
    19 H19     -1.2602  -8.2192 -11.1860   H         1 RES1   0.0000
    20 C20     -1.1594  -5.9688 -13.1688   C.2       1 RES1   0.0000
    21 C21     -1.4160  -4.9157 -12.1531   C.ar      1 RES1   0.0000
    22 O22     -0.1808  -7.5094 -16.1020   O.2       1 RES1   0.0000
    23 C23     -0.6007  -7.1206 -15.0199   C.2       1 RES1   0.0000
    24 N24     -1.5984  -7.2184 -13.0119   N.pl3     1 RES1   0.0000
    25 C25     -1.0832 -11.6911 -13.3372   C.3       1 RES1   0.0000
    26 H26     -0.6331 -12.2196 -12.4981   H         1 RES1   0.0000
    27 H27     -0.6343 -12.0371 -14.2671   H         1 RES1   0.0000
    28 C28     -3.2435 -11.2227 -14.4623   C.3       1 RES1   0.0000
    29 H29     -2.8590 -11.5671 -15.4212   H         1 RES1   0.0000
    30 H30     -4.3132 -11.4194 -14.4083   H         1 RES1   0.0000
    31 C31     -3.0042  -9.7256 -14.3371   C.3       1 RES1   0.0000
    32 H32     -3.4589  -9.2199 -15.1876   H         1 RES1   0.0000
    33 H33     -3.4608  -9.3678 -13.4154   H         1 RES1   0.0000
    34 C34     -0.8406 -10.1997 -13.1835   C.3       1 RES1   0.0000
    35 H35     -1.2472  -9.8704 -12.2284   H         1 RES1   0.0000
    36 H36      0.2315 -10.0101 -13.2063   H         1 RES1   0.0000
    37 N37     -2.5535 -11.9614 -13.3641   N.4       1 RES1   1.0000
    38 H38     -2.9545 -11.6761 -12.4764   H         1 RES1   0.0000
    39 H39     -2.7004 -12.9568 -13.4974   H         1 RES1   0.0000
    40 N40     -2.6992  -4.6898 -11.8302   N.ar      1 RES1   0.0000
    41 C41     -0.7580  -3.2243 -10.6488   C.ar      1 RES1   0.0000
    42 H42      0.0265  -2.6440 -10.1743   H         1 RES1   0.0000
    43 N43     -4.2293  -3.4806 -10.6241   N.pl3     1 RES1   0.0000
    44 H44     -4.9481  -3.9969 -11.1311   H         1 RES1   0.0000
    45 C45     -0.3913  -4.1856 -11.5689   C.ar      1 RES1   0.0000
    46 H46      0.6486  -4.3597 -11.8246   H         1 RES1   0.0000
    47 C47     -2.9451  -3.7222 -10.9322   C.ar      1 RES1   0.0000
    48 N48     -2.0280  -2.9671 -10.3100   N.ar      1 RES1   0.0000
    49 C49     -4.6643  -2.4782  -9.6516   C.3       1 RES1   0.0000
    50 H50     -4.3233  -1.4875  -9.9902   H         1 RES1   0.0000
    51 C51     -4.1029  -2.7346  -8.2669   C.ar      1 RES1   0.0000
    52 C52     -6.1883  -2.4858  -9.6300   C.3       1 RES1   0.0000
    53 H53     -6.5686  -1.7323  -8.9435   H         1 RES1   0.0000
    54 H54     -6.5910  -2.2770 -10.6190   H         1 RES1   0.0000
    55 H55     -6.5631  -3.4556  -9.3096   H         1 RES1   0.0000
    56 C56     -3.0711  -3.2211  -5.7254   C.ar      1 RES1   0.0000
    57 H57     -2.6686  -3.4104  -4.7358   H         1 RES1   0.0000
    58 C58     -3.8286  -4.0284  -7.8475   C.ar      1 RES1   0.0000
    59 H59     -4.0188  -4.8605  -8.5173   H         1 RES1   0.0000
    60 C60     -3.8536  -1.6880  -7.3899   C.ar      1 RES1   0.0000
    61 H61     -4.0618  -0.6678  -7.6949   H         1 RES1   0.0000
    62 C62     -3.3404  -1.9312  -6.1270   C.ar      1 RES1   0.0000
    63 H63     -3.1499  -1.1032  -5.4524   H         1 RES1   0.0000
    64 C64     -3.3148  -4.2698  -6.5847   C.ar      1 RES1   0.0000
    65 H65     -3.1038  -5.2869  -6.2717   H         1 RES1   0.0000
@<TRIPOS>BOND
     1     1     5   ar
     2     1     6   ar
     3     1     2    1
     4     3     8   ar
     5     3     9   ar
     6     3     4    1
     7     5     9   ar
     8     5    11    1
     9     6     8   ar
    10     6     7    1
    11     8    12    1
    12     9    10    1
    13    11    20    2
    14    11    23    1
    15    13    14    1
    16    13    23   am
    17    13    24    1
    18    14    31    1
    19    14    34    1
    20    14    15    1
    21    16    24    1
    22    16    17    1
    23    16    18    1
    24    16    19    1
    25    20    21    1
    26    20    24    1
    27    21    40   ar
    28    21    45   ar
    29    22    23    2
    30    25    34    1
    31    25    37    1
    32    25    26    1
    33    25    27    1
    34    28    31    1
    35    28    37    1
    36    28    29    1
    37    28    30    1
    38    31    32    1
    39    31    33    1
    40    34    35    1
    41    34    36    1
    42    37    38    1
    43    37    39    1
    44    40    47   ar
    45    41    45   ar
    46    41    48   ar
    47    41    42    1
    48    43    47    1
    49    43    49    1
    50    43    44    1
    51    45    46    1
    52    47    48   ar
    53    49    51    1
    54    49    52    1
    55    49    50    1
    56    51    58   ar
    57    51    60   ar
    58    52    53    1
    59    52    54    1
    60    52    55    1
    61    56    62   ar
    62    56    64   ar
    63    56    57    1
    64    58    64   ar
    65    58    59    1
    66    60    62   ar
    67    60    61    1
    68    62    63    1
    69    64    65    1
@<TRIPOS>SUBSTRUCTURE
     1 RES1        1 GROUP             0 ****  ****    0  
@<TRIPOS>MOLECULE
LIGAND_00005
    65    69     1     0     0
SMALL
USER_CHARGES
****
Generated from the CSD

@<TRIPOS>ATOM
     1 C1      -0.4216  -3.4233 -14.9872   C.ar      1 RES1   0.0000
     2 H2      -1.5035  -3.4048 -14.9118   H         1 RES1   0.0000
     3 C3       2.3361  -3.4326 -15.1519   C.ar      1 RES1   0.0000
     4 H4       3.4194  -3.4263 -15.2113   H         1 RES1   0.0000
     5 C5       0.2625  -4.6065 -14.7248   C.ar      1 RES1   0.0000
     6 C6       0.2505  -2.2656 -15.3374   C.ar      1 RES1   0.0000
     7 H7      -0.2921  -1.3505 -15.5495   H         1 RES1   0.0000
     8 C8       1.6147  -2.3015 -15.4078   C.ar      1 RES1   0.0000
     9 C9       1.6514  -4.5863 -14.8162   C.ar      1 RES1   0.0000
    10 H10      2.2147  -5.4925 -14.6250   H         1 RES1   0.0000
    11 C11     -0.4515  -5.8673 -14.3406   C.2       1 RES1   0.0000
    12 F12      2.2827  -1.1653 -15.7463   F         1 RES1   0.0000
    13 N13     -1.3011  -7.9168 -14.1974   N.am      1 RES1   0.0000
    14 C14     -1.6554  -9.3631 -14.3953   C.3       1 RES1   0.0000
    15 H15     -1.1818  -9.7043 -15.3147   H         1 RES1   0.0000
    16 C16     -2.3020  -7.7925 -11.8822   C.3       1 RES1   0.0000
    17 H17     -2.8415  -7.0454 -11.3037   H         1 RES1   0.0000
    18 H18     -3.0049  -8.5729 -12.1666   H         1 RES1   0.0000
    19 H19     -1.5436  -8.2362 -11.2406   H         1 RES1   0.0000
    20 C20     -1.1594  -5.9688 -13.1688   C.2       1 RES1   0.0000
    21 C21     -1.4160  -4.9157 -12.1531   C.ar      1 RES1   0.0000
    22 O22     -0.0837  -7.5287 -16.0575   O.2       1 RES1   0.0000
    23 C23     -0.5509  -7.1285 -14.9992   C.2       1 RES1   0.0000
    24 N24     -1.6890  -7.1886 -13.0657   N.pl3     1 RES1   0.0000
    25 C25     -1.4462 -11.6805 -13.4399   C.3       1 RES1   0.0000
    26 H26     -1.0906 -12.2498 -12.5823   H         1 RES1   0.0000
    27 H27     -0.9578 -12.0422 -14.3435   H         1 RES1   0.0000
    28 C28     -3.4884 -11.0532 -14.7000   C.3       1 RES1   0.0000
    29 H29     -3.0621 -11.4086 -15.6369   H         1 RES1   0.0000
    30 H30     -4.5699 -11.1790 -14.7225   H         1 RES1   0.0000
    31 C31     -3.1609  -9.5773 -14.5305   C.3       1 RES1   0.0000
    32 H32     -3.5218  -9.0303 -15.4002   H         1 RES1   0.0000
    33 H33     -3.6556  -9.2032 -13.6354   H         1 RES1   0.0000
    34 C34     -1.1178 -10.2109 -13.2418   C.3       1 RES1   0.0000
    35 H35     -1.5669  -9.8690 -12.3105   H         1 RES1   0.0000
    36 H36     -0.0365 -10.0928 -13.1883   H         1 RES1   0.0000
    37 N37     -2.9257 -11.8519 -13.5717   N.4       1 RES1   1.0000
    38 H38     -3.3674 -11.5534 -12.7079   H         1 RES1   0.0000
    39 H39     -3.1278 -12.8333 -13.7334   H         1 RES1   0.0000
    40 N40     -0.8662  -5.0993 -10.9425   N.ar      1 RES1   0.0000
    41 C41     -2.3708  -2.8985 -11.3940   C.ar      1 RES1   0.0000
    42 H42     -2.9709  -2.0147 -11.5841   H         1 RES1   0.0000
    43 N43     -0.5809  -4.3597  -8.7908   N.pl3     1 RES1   0.0000
    44 H44     -0.7077  -3.6276  -8.0920   H         1 RES1   0.0000
    45 C45     -2.1938  -3.7996 -12.4246   C.ar      1 RES1   0.0000
    46 H46     -2.6438  -3.6432 -13.3994   H         1 RES1   0.0000
    47 C47     -1.1127  -4.1667 -10.0084   C.ar      1 RES1   0.0000
    48 N48     -1.8442  -3.0549 -10.1726   N.ar      1 RES1   0.0000
    49 C49      0.2223  -5.5254  -8.4225   C.3       1 RES1   0.0000
    50 H50      1.1134  -5.5577  -9.0685   H         1 RES1   0.0000
    51 C51     -0.5389  -6.8264  -8.5847   C.ar      1 RES1   0.0000
    52 C52      0.6755  -5.3373  -6.9794   C.3       1 RES1   0.0000
    53 H53      1.3069  -6.1646  -6.6620   H         1 RES1   0.0000
    54 H54      1.2432  -4.4159  -6.8684   H         1 RES1   0.0000
    55 H55     -0.1814  -5.2898  -6.3107   H         1 RES1   0.0000
    56 C56     -1.9510  -9.2095  -8.8799   C.ar      1 RES1   0.0000
    57 H57     -2.5009 -10.1376  -8.9956   H         1 RES1   0.0000
    58 C58     -1.9169  -6.8596  -8.4266   C.ar      1 RES1   0.0000
    59 H59     -2.4507  -5.9465  -8.1846   H         1 RES1   0.0000
    60 C60      0.1206  -8.0088  -8.8911   C.ar      1 RES1   0.0000
    61 H61      1.1981  -8.0078  -9.0178   H         1 RES1   0.0000
    62 C62     -0.5827  -9.1925  -9.0379   C.ar      1 RES1   0.0000
    63 H63     -0.0539 -10.1089  -9.2781   H         1 RES1   0.0000
    64 C64     -2.6185  -8.0439  -8.5744   C.ar      1 RES1   0.0000
    65 H65     -3.6962  -8.0537  -8.4495   H         1 RES1   0.0000
@<TRIPOS>BOND
     1     1     5   ar
     2     1     6   ar
     3     1     2    1
     4     3     8   ar
     5     3     9   ar
     6     3     4    1
     7     5     9   ar
     8     5    11    1
     9     6     8   ar
    10     6     7    1
    11     8    12    1
    12     9    10    1
    13    11    20    2
    14    11    23    1
    15    13    14    1
    16    13    23   am
    17    13    24    1
    18    14    31    1
    19    14    34    1
    20    14    15    1
    21    16    24    1
    22    16    17    1
    23    16    18    1
    24    16    19    1
    25    20    21    1
    26    20    24    1
    27    21    40   ar
    28    21    45   ar
    29    22    23    2
    30    25    34    1
    31    25    37    1
    32    25    26    1
    33    25    27    1
    34    28    31    1
    35    28    37    1
    36    28    29    1
    37    28    30    1
    38    31    32    1
    39    31    33    1
    40    34    35    1
    41    34    36    1
    42    37    38    1
    43    37    39    1
    44    40    47   ar
    45    41    45   ar
    46    41    48   ar
    47    41    42    1
    48    43    47    1
    49    43    49    1
    50    43    44    1
    51    45    46    1
    52    47    48   ar
    53    49    51    1
    54    49    52    1
    55    49    50    1
    56    51    58   ar
    57    51    60   ar
    58    52    53    1
    59    52    54    1
    60    52    55    1
    61    56    62   ar
    62    56    64   ar
    63    56    57    1
    64    58    64   ar
    65    58    59    1
    66    60    62   ar
    67    60    61    1
    68    62    63    1
    69    64    65    1
@<TRIPOS>SUBSTRUCTURE
     1 RES1        1 GROUP             0 ****  ****    0  
@<TRIPOS>MOLECULE
LIGAND_00006
    65    69     1     0     0
SMALL
USER_CHARGES
****
Generated from the CSD

@<TRIPOS>ATOM
     1 C1      -0.4272  -3.4234 -14.9906   C.ar      1 RES1   0.0000
     2 H2      -1.5091  -3.4066 -14.9153   H         1 RES1   0.0000
     3 C3       2.3304  -3.4284 -15.1554   C.ar      1 RES1   0.0000
     4 H4       3.4137  -3.4204 -15.2149   H         1 RES1   0.0000
     5 C5       0.2588  -4.6052 -14.7271   C.ar      1 RES1   0.0000
     6 C6       0.2430  -2.2650 -15.3420   C.ar      1 RES1   0.0000
     7 H7      -0.3012  -1.3510 -15.5550   H         1 RES1   0.0000
     8 C8       1.6072  -2.2988 -15.4125   C.ar      1 RES1   0.0000
     9 C9       1.6477  -4.5828 -14.8185   C.ar      1 RES1   0.0000
    10 H10      2.2125  -5.4879 -14.6264   H         1 RES1   0.0000
    11 C11     -0.4531  -5.8668 -14.3416   C.2       1 RES1   0.0000
    12 F12      2.2733  -1.1618 -15.7522   F         1 RES1   0.0000
    13 N13     -1.3000  -7.9173 -14.1966   N.am      1 RES1   0.0000
    14 C14     -1.6528  -9.3641 -14.3936   C.3       1 RES1   0.0000
    15 H15     -1.1800  -9.7049 -15.3135   H         1 RES1   0.0000
    16 C16     -2.2981  -7.7935 -11.8801   C.3       1 RES1   0.0000
    17 H17     -2.8381  -7.0470 -11.3014   H         1 RES1   0.0000
    18 H18     -3.0000  -8.5752 -12.1633   H         1 RES1   0.0000
    19 H19     -1.5383  -8.2357 -11.2392   H         1 RES1   0.0000
    20 C20     -1.1594  -5.9688 -13.1688   C.2       1 RES1   0.0000
    21 C21     -1.4160  -4.9157 -12.1531   C.ar      1 RES1   0.0000
    22 O22     -0.0855  -7.5282 -16.0584   O.2       1 RES1   0.0000
    23 C23     -0.5518  -7.1283 -14.9997   C.2       1 RES1   0.0000
    24 N24     -1.6873  -7.1892 -13.0646   N.pl3     1 RES1   0.0000
    25 C25     -1.4393 -11.6809 -13.4378   C.3       1 RES1   0.0000
    26 H26     -1.0818 -12.2496 -12.5806   H         1 RES1   0.0000
    27 H27     -0.9517 -12.0423 -14.3420   H         1 RES1   0.0000
    28 C28     -3.4840 -11.0566 -14.6952   C.3       1 RES1   0.0000
    29 H29     -3.0585 -11.4117 -15.6327   H         1 RES1   0.0000
    30 H30     -4.5654 -11.1838 -14.7162   H         1 RES1   0.0000
    31 C31     -3.1582  -9.5803 -14.5266   C.3       1 RES1   0.0000
    32 H32     -3.5210  -9.0339 -15.3960   H         1 RES1   0.0000
    33 H33     -3.6521  -9.2065 -13.6309   H         1 RES1   0.0000
    34 C34     -1.1124 -10.2109 -13.2406   C.3       1 RES1   0.0000
    35 H35     -1.5607  -9.8693 -12.3088   H         1 RES1   0.0000
    36 H36     -0.0313 -10.0914 -13.1886   H         1 RES1   0.0000
    37 N37     -2.9188 -11.8542 -13.5675   N.4       1 RES1   1.0000
    38 H38     -3.3596 -11.5560 -12.7032   H         1 RES1   0.0000
    39 H39     -3.1198 -12.8360 -13.7287   H         1 RES1   0.0000
    40 N40     -0.8662  -5.0993 -10.9425   N.ar      1 RES1   0.0000
    41 C41     -2.3708  -2.8985 -11.3940   C.ar      1 RES1   0.0000
    42 H42     -2.9709  -2.0147 -11.5841   H         1 RES1   0.0000
    43 N43     -0.5809  -4.3597  -8.7908   N.pl3     1 RES1   0.0000
    44 H44     -0.0745  -5.2289  -8.6224   H         1 RES1   0.0000
    45 C45     -2.1938  -3.7996 -12.4246   C.ar      1 RES1   0.0000
    46 H46     -2.6438  -3.6432 -13.3994   H         1 RES1   0.0000
    47 C47     -1.1127  -4.1667 -10.0084   C.ar      1 RES1   0.0000
    48 N48     -1.8442  -3.0549 -10.1726   N.ar      1 RES1   0.0000
    49 C49     -0.7360  -3.4303  -7.6720   C.3       1 RES1   0.0000
    50 H50     -1.8077  -3.3363  -7.4377   H         1 RES1   0.0000
    51 C51     -0.1878  -2.0520  -7.9854   C.ar      1 RES1   0.0000
    52 C52     -0.0269  -4.0358  -6.4662   C.3       1 RES1   0.0000
    53 H53     -0.1386  -3.3978  -5.5920   H         1 RES1   0.0000
    54 H54     -0.4375  -5.0143  -6.2262   H         1 RES1   0.0000
    55 H55      1.0362  -4.1541  -6.6652   H         1 RES1   0.0000
    56 C56      0.8299   0.4743  -8.5709   C.ar      1 RES1   0.0000
    57 H57      1.2256   1.4583  -8.7994   H         1 RES1   0.0000
    58 C58      0.8744  -1.9007  -8.8650   C.ar      1 RES1   0.0000
    59 H59      1.3141  -2.7769  -9.3299   H         1 RES1   0.0000
    60 C60     -0.7305  -0.9155  -7.4016   C.ar      1 RES1   0.0000
    61 H61     -1.5605  -1.0090  -6.7092   H         1 RES1   0.0000
    62 C62     -0.2239   0.3396  -7.6939   C.ar      1 RES1   0.0000
    63 H63     -0.6585   1.2191  -7.2306   H         1 RES1   0.0000
    64 C64      1.3792  -0.6449  -9.1566   C.ar      1 RES1   0.0000
    65 H65      2.2091  -0.5425  -9.8479   H         1 RES1   0.0000
@<TRIPOS>BOND
     1     1     5   ar
     2     1     6   ar
     3     1     2    1
     4     3     8   ar
     5     3     9   ar
     6     3     4    1
     7     5     9   ar
     8     5    11    1
     9     6     8   ar
    10     6     7    1
    11     8    12    1
    12     9    10    1
    13    11    20    2
    14    11    23    1
    15    13    14    1
    16    13    23   am
    17    13    24    1
    18    14    31    1
    19    14    34    1
    20    14    15    1
    21    16    24    1
    22    16    17    1
    23    16    18    1
    24    16    19    1
    25    20    21    1
    26    20    24    1
    27    21    40   ar
    28    21    45   ar
    29    22    23    2
    30    25    34    1
    31    25    37    1
    32    25    26    1
    33    25    27    1
    34    28    31    1
    35    28    37    1
    36    28    29    1
    37    28    30    1
    38    31    32    1
    39    31    33    1
    40    34    35    1
    41    34    36    1
    42    37    38    1
    43    37    39    1
    44    40    47   ar
    45    41    45   ar
    46    41    48   ar
    47    41    42    1
    48    43    47    1
    49    43    49    1
    50    43    44    1
    51    45    46    1
    52    47    48   ar
    53    49    51    1
    54    49    52    1
    55    49    50    1
    56    51    58   ar
    57    51    60   ar
    58    52    53    1
    59    52    54    1
    60    52    55    1
    61    56    62   ar
    62    56    64   ar
    63    56    57    1
    64    58    64   ar
    65    58    59    1
    66    60    62   ar
    67    60    61    1
    68    62    63    1
    69    64    65    1
@<TRIPOS>SUBSTRUCTURE
     1 RES1        1 GROUP             0 ****  ****    0  
@<TRIPOS>MOLECULE
LIGAND_00007
    65    69     1     0     0
SMALL
USER_CHARGES
****
Generated from the CSD

@<TRIPOS>ATOM
     1 C1      -0.7661  -3.8367 -15.9790   C.ar      1 RES1   0.0000
     2 H2      -1.6383  -4.2802 -16.4469   H         1 RES1   0.0000
     3 C3       1.4319  -2.6671 -14.7821   C.ar      1 RES1   0.0000
     4 H4       2.2899  -2.1977 -14.3123   H         1 RES1   0.0000
     5 C5      -0.1374  -4.5040 -14.9320   C.ar      1 RES1   0.0000
     6 C6      -0.3049  -2.6138 -16.4333   C.ar      1 RES1   0.0000
     7 H7      -0.7959  -2.1056 -17.2565   H         1 RES1   0.0000
     8 C8       0.7828  -2.0599 -15.8191   C.ar      1 RES1   0.0000
     9 C9       0.9691  -3.8952 -14.3466   C.ar      1 RES1   0.0000
    10 H10      1.4865  -4.3913 -13.5333   H         1 RES1   0.0000
    11 C11     -0.6277  -5.8274 -14.4266   C.2       1 RES1   0.0000
    12 F12      1.2387  -0.8548 -16.2570   F         1 RES1   0.0000
    13 N13     -1.1810  -7.9592 -14.1231   N.am      1 RES1   0.0000
    14 C14     -1.3689  -9.4452 -14.2379   C.3       1 RES1   0.0000
    15 H15     -0.9781  -9.7615 -15.2039   H         1 RES1   0.0000
    16 C16     -1.8822  -7.8671 -11.6988   C.3       1 RES1   0.0000
    17 H17     -2.4344  -7.1703 -11.0716   H         1 RES1   0.0000
    18 H18     -2.5093  -8.7399 -11.8685   H         1 RES1   0.0000
    19 H19     -0.9966  -8.1864 -11.1535   H         1 RES1   0.0000
    20 C20     -1.1594  -5.9688 -13.1688   C.2       1 RES1   0.0000
    21 C21     -1.4160  -4.9157 -12.1531   C.ar      1 RES1   0.0000
    22 O22     -0.2741  -7.4980 -16.1374   O.2       1 RES1   0.0000
    23 C23     -0.6483  -7.1166 -15.0361   C.2       1 RES1   0.0000
    24 N24     -1.5099  -7.2398 -12.9673   N.pl3     1 RES1   0.0000
    25 C25     -0.7417 -11.6781 -13.2645   C.3       1 RES1   0.0000
    26 H26     -0.2081 -12.1637 -12.4487   H         1 RES1   0.0000
    27 H27     -0.3317 -12.0123 -14.2163   H         1 RES1   0.0000
    28 C28     -2.9932 -11.3610 -14.2557   C.3       1 RES1   0.0000
    29 H29     -2.6493 -11.6981 -15.2324   H         1 RES1   0.0000
    30 H30     -4.0433 -11.6212 -14.1309   H         1 RES1   0.0000
    31 C31     -2.8391  -9.8502 -14.1662   C.3       1 RES1   0.0000
    32 H32     -3.3767  -9.3878 -14.9927   H         1 RES1   0.0000
    33 H33     -3.2581  -9.5048 -13.2222   H         1 RES1   0.0000
    34 C34     -0.5823 -10.1722 -13.1467   C.3       1 RES1   0.0000
    35 H35     -0.9475  -9.8516 -12.1721   H         1 RES1   0.0000
    36 H36      0.4726  -9.9185 -13.2404   H         1 RES1   0.0000
    37 N37     -2.1914 -12.0373 -13.1939   N.4       1 RES1   1.0000
    38 H38     -2.5526 -11.7615 -12.2863   H         1 RES1   0.0000
    39 H39     -2.2848 -13.0420 -13.3041   H         1 RES1   0.0000
    40 N40     -2.6992  -4.6898 -11.8302   N.ar      1 RES1   0.0000
    41 C41     -0.7580  -3.2243 -10.6488   C.ar      1 RES1   0.0000
    42 H42      0.0265  -2.6440 -10.1743   H         1 RES1   0.0000
    43 N43     -4.2293  -3.4806 -10.6241   N.pl3     1 RES1   0.0000
    44 H44     -4.4254  -2.7909  -9.8987   H         1 RES1   0.0000
    45 C45     -0.3913  -4.1856 -11.5689   C.ar      1 RES1   0.0000
    46 H46      0.6486  -4.3597 -11.8246   H         1 RES1   0.0000
    47 C47     -2.9451  -3.7222 -10.9322   C.ar      1 RES1   0.0000
    48 N48     -2.0280  -2.9671 -10.3100   N.ar      1 RES1   0.0000
    49 C49     -5.3623  -4.1895 -11.2186   C.3       1 RES1   0.0000
    50 H50     -5.2728  -5.2605 -10.9791   H         1 RES1   0.0000
    51 C51     -5.4144  -4.0346 -12.7258   C.ar      1 RES1   0.0000
    52 C52     -6.6341  -3.6523 -10.5728   C.3       1 RES1   0.0000
    53 H53     -7.5106  -4.1703 -10.9567   H         1 RES1   0.0000
    54 H54     -6.6072  -3.7863  -9.4934   H         1 RES1   0.0000
    55 H55     -6.7510  -2.5906 -10.7795   H         1 RES1   0.0000
    56 C56     -5.5035  -3.7361 -15.4941   C.ar      1 RES1   0.0000
    57 H57     -5.5376  -3.6202 -16.5723   H         1 RES1   0.0000
    58 C58     -4.9241  -2.8872 -13.3324   C.ar      1 RES1   0.0000
    59 H59     -4.5015  -2.0967 -12.7212   H         1 RES1   0.0000
    60 C60     -5.9528  -5.0298 -13.5299   C.ar      1 RES1   0.0000
    61 H61     -6.3440  -5.9353 -13.0781   H         1 RES1   0.0000
    62 C62     -5.9961  -4.8801 -14.9058   C.ar      1 RES1   0.0000
    63 H63     -6.4192  -5.6666 -15.5219   H         1 RES1   0.0000
    64 C64     -4.9676  -2.7396 -14.7084   C.ar      1 RES1   0.0000
    65 H65     -4.5786  -1.8373 -15.1683   H         1 RES1   0.0000
@<TRIPOS>BOND
     1     1     5   ar
     2     1     6   ar
     3     1     2    1
     4     3     8   ar
     5     3     9   ar
     6     3     4    1
     7     5     9   ar
     8     5    11    1
     9     6     8   ar
    10     6     7    1
    11     8    12    1
    12     9    10    1
    13    11    20    2
    14    11    23    1
    15    13    14    1
    16    13    23   am
    17    13    24    1
    18    14    31    1
    19    14    34    1
    20    14    15    1
    21    16    24    1
    22    16    17    1
    23    16    18    1
    24    16    19    1
    25    20    21    1
    26    20    24    1
    27    21    40   ar
    28    21    45   ar
    29    22    23    2
    30    25    34    1
    31    25    37    1
    32    25    26    1
    33    25    27    1
    34    28    31    1
    35    28    37    1
    36    28    29    1
    37    28    30    1
    38    31    32    1
    39    31    33    1
    40    34    35    1
    41    34    36    1
    42    37    38    1
    43    37    39    1
    44    40    47   ar
    45    41    45   ar
    46    41    48   ar
    47    41    42    1
    48    43    47    1
    49    43    49    1
    50    43    44    1
    51    45    46    1
    52    47    48   ar
    53    49    51    1
    54    49    52    1
    55    49    50    1
    56    51    58   ar
    57    51    60   ar
    58    52    53    1
    59    52    54    1
    60    52    55    1
    61    56    62   ar
    62    56    64   ar
    63    56    57    1
    64    58    64   ar
    65    58    59    1
    66    60    62   ar
    67    60    61    1
    68    62    63    1
    69    64    65    1
@<TRIPOS>SUBSTRUCTURE
     1 RES1        1 GROUP             0 ****  ****    0  
@<TRIPOS>MOLECULE
LIGAND_00008
    65    69     1     0     0
SMALL
USER_CHARGES
****
Generated from the CSD

@<TRIPOS>ATOM
     1 C1      -0.7652  -3.8364 -15.9786   C.ar      1 RES1   0.0000
     2 H2      -1.6376  -4.2797 -16.4466   H         1 RES1   0.0000
     3 C3       1.4331  -2.6677 -14.7816   C.ar      1 RES1   0.0000
     4 H4       2.2913  -2.1986 -14.3117   H         1 RES1   0.0000
     5 C5      -0.1367  -4.5042 -14.9317   C.ar      1 RES1   0.0000
     6 C6      -0.3037  -2.6137 -16.4327   C.ar      1 RES1   0.0000
     7 H7      -0.7945  -2.1052 -17.2559   H         1 RES1   0.0000
     8 C8       0.7842  -2.0602 -15.8184   C.ar      1 RES1   0.0000
     9 C9       0.9700  -3.8958 -14.3462   C.ar      1 RES1   0.0000
    10 H10      1.4872  -4.3921 -13.5330   H         1 RES1   0.0000
    11 C11     -0.6274  -5.8274 -14.4264   C.2       1 RES1   0.0000
    12 F12      1.2404  -0.8551 -16.2562   F         1 RES1   0.0000
    13 N13     -1.1812  -7.9591 -14.1232   N.am      1 RES1   0.0000
    14 C14     -1.3694  -9.4451 -14.2381   C.3       1 RES1   0.0000
    15 H15     -0.9785  -9.7614 -15.2040   H         1 RES1   0.0000
    16 C16     -1.8829  -7.8670 -11.6990   C.3       1 RES1   0.0000
    17 H17     -2.4351  -7.1702 -11.0719   H         1 RES1   0.0000
    18 H18     -2.5102  -8.7397 -11.8690   H         1 RES1   0.0000
    19 H19     -0.9975  -8.1865 -11.1535   H         1 RES1   0.0000
    20 C20     -1.1594  -5.9688 -13.1688   C.2       1 RES1   0.0000
    21 C21     -1.4160  -4.9157 -12.1531   C.ar      1 RES1   0.0000
    22 O22     -0.2738  -7.4980 -16.1373   O.2       1 RES1   0.0000
    23 C23     -0.6482  -7.1166 -15.0361   C.2       1 RES1   0.0000
    24 N24     -1.5102  -7.2398 -12.9675   N.pl3     1 RES1   0.0000
    25 C25     -0.7429 -11.6781 -13.2647   C.3       1 RES1   0.0000
    26 H26     -0.2096 -12.1639 -12.4489   H         1 RES1   0.0000
    27 H27     -0.3327 -12.0124 -14.2165   H         1 RES1   0.0000
    28 C28     -2.9941 -11.3606 -14.2563   C.3       1 RES1   0.0000
    29 H29     -2.6500 -11.6977 -15.2330   H         1 RES1   0.0000
    30 H30     -4.0442 -11.6205 -14.1318   H         1 RES1   0.0000
    31 C31     -2.8397  -9.8498 -14.1667   C.3       1 RES1   0.0000
    32 H32     -3.3770  -9.3873 -14.9934   H         1 RES1   0.0000
    33 H33     -3.2588  -9.5044 -13.2228   H         1 RES1   0.0000
    34 C34     -0.5831 -10.1724 -13.1468   C.3       1 RES1   0.0000
    35 H35     -0.9485  -9.8517 -12.1723   H         1 RES1   0.0000
    36 H36      0.4718  -9.9188 -13.2403   H         1 RES1   0.0000
    37 N37     -2.1927 -12.0371 -13.1944   N.4       1 RES1   1.0000
    38 H38     -2.5539 -11.7613 -12.2869   H         1 RES1   0.0000
    39 H39     -2.2862 -13.0417 -13.3047   H         1 RES1   0.0000
    40 N40     -2.6992  -4.6898 -11.8302   N.ar      1 RES1   0.0000
    41 C41     -0.7580  -3.2243 -10.6488   C.ar      1 RES1   0.0000
    42 H42      0.0265  -2.6440 -10.1743   H         1 RES1   0.0000
    43 N43     -4.2293  -3.4806 -10.6241   N.pl3     1 RES1   0.0000
    44 H44     -4.9481  -3.9970 -11.1310   H         1 RES1   0.0000
    45 C45     -0.3913  -4.1856 -11.5689   C.ar      1 RES1   0.0000
    46 H46      0.6486  -4.3597 -11.8246   H         1 RES1   0.0000
    47 C47     -2.9451  -3.7222 -10.9322   C.ar      1 RES1   0.0000
    48 N48     -2.0280  -2.9671 -10.3100   N.ar      1 RES1   0.0000
    49 C49     -4.6643  -2.4781  -9.6517   C.3       1 RES1   0.0000
    50 H50     -4.3233  -1.4875  -9.9903   H         1 RES1   0.0000
    51 C51     -4.1029  -2.7344  -8.2669   C.ar      1 RES1   0.0000
    52 C52     -6.1883  -2.4857  -9.6301   C.3       1 RES1   0.0000
    53 H53     -6.5686  -1.7322  -8.9436   H         1 RES1   0.0000
    54 H54     -6.5910  -2.2770 -10.6191   H         1 RES1   0.0000
    55 H55     -6.5631  -3.4555  -9.3096   H         1 RES1   0.0000
    56 C56     -3.0711  -3.2207  -5.7254   C.ar      1 RES1   0.0000
    57 H57     -2.6686  -3.4098  -4.7358   H         1 RES1   0.0000
    58 C58     -3.8287  -4.0282  -7.8474   C.ar      1 RES1   0.0000
    59 H59     -4.0190  -4.8604  -8.5171   H         1 RES1   0.0000
    60 C60     -3.8535  -1.6876  -7.3901   C.ar      1 RES1   0.0000
    61 H61     -4.0617  -0.6675  -7.6952   H         1 RES1   0.0000
    62 C62     -3.3403  -1.9308  -6.1272   C.ar      1 RES1   0.0000
    63 H63     -3.1498  -1.1027  -5.4527   H         1 RES1   0.0000
    64 C64     -3.3149  -4.2694  -6.5846   C.ar      1 RES1   0.0000
    65 H65     -3.1040  -5.2865  -6.2715   H         1 RES1   0.0000
@<TRIPOS>BOND
     1     1     5   ar
     2     1     6   ar
     3     1     2    1
     4     3     8   ar
     5     3     9   ar
     6     3     4    1
     7     5     9   ar
     8     5    11    1
     9     6     8   ar
    10     6     7    1
    11     8    12    1
    12     9    10    1
    13    11    20    2
    14    11    23    1
    15    13    14    1
    16    13    23   am
    17    13    24    1
    18    14    31    1
    19    14    34    1
    20    14    15    1
    21    16    24    1
    22    16    17    1
    23    16    18    1
    24    16    19    1
    25    20    21    1
    26    20    24    1
    27    21    40   ar
    28    21    45   ar
    29    22    23    2
    30    25    34    1
    31    25    37    1
    32    25    26    1
    33    25    27    1
    34    28    31    1
    35    28    37    1
    36    28    29    1
    37    28    30    1
    38    31    32    1
    39    31    33    1
    40    34    35    1
    41    34    36    1
    42    37    38    1
    43    37    39    1
    44    40    47   ar
    45    41    45   ar
    46    41    48   ar
    47    41    42    1
    48    43    47    1
    49    43    49    1
    50    43    44    1
    51    45    46    1
    52    47    48   ar
    53    49    51    1
    54    49    52    1
    55    49    50    1
    56    51    58   ar
    57    51    60   ar
    58    52    53    1
    59    52    54    1
    60    52    55    1
    61    56    62   ar
    62    56    64   ar
    63    56    57    1
    64    58    64   ar
    65    58    59    1
    66    60    62   ar
    67    60    61    1
    68    62    63    1
    69    64    65    1
@<TRIPOS>SUBSTRUCTURE
     1 RES1        1 GROUP             0 ****  ****    0  
@<TRIPOS>MOLECULE
LIGAND_00009
    65    69     1     0     0
SMALL
USER_CHARGES
****
Generated from the CSD

@<TRIPOS>ATOM
     1 C1      -0.7027  -3.3903 -14.9781   C.ar      1 RES1   0.0000
     2 H2      -1.7635  -3.4211 -14.7543   H         1 RES1   0.0000
     3 C3       2.0037  -3.2747 -15.5205   C.ar      1 RES1   0.0000
     4 H4       3.0672  -3.2194 -15.7282   H         1 RES1   0.0000
     5 C5       0.0599  -4.5461 -14.8386   C.ar      1 RES1   0.0000
     6 C6      -0.1343  -2.1985 -15.3916   C.ar      1 RES1   0.0000
     7 H7      -0.7388  -1.3050 -15.5067   H         1 RES1   0.0000
     8 C8       1.2073  -2.1727 -15.6497   C.ar      1 RES1   0.0000
     9 C9       1.4207  -4.4628 -15.1196   C.ar      1 RES1   0.0000
    10 H10      2.0424  -5.3462 -15.0278   H         1 RES1   0.0000
    11 C11     -0.5410  -5.8434 -14.3880   C.2       1 RES1   0.0000
    12 F12      1.7741  -1.0026 -16.0515   F         1 RES1   0.0000
    13 N13     -1.2406  -7.9410 -14.1570   N.am      1 RES1   0.0000
    14 C14     -1.5106  -9.4109 -14.3092   C.3       1 RES1   0.0000
    15 H15     -1.0788  -9.7377 -15.2540   H         1 RES1   0.0000
    16 C16     -2.0882  -7.8386 -11.7803   C.3       1 RES1   0.0000
    17 H17     -2.6361  -7.1177 -11.1770   H         1 RES1   0.0000
    18 H18     -2.7550  -8.6688 -12.0043   H         1 RES1   0.0000
    19 H19     -1.2602  -8.2192 -11.1860   H         1 RES1   0.0000
    20 C20     -1.1594  -5.9688 -13.1688   C.2       1 RES1   0.0000
    21 C21     -1.4160  -4.9157 -12.1531   C.ar      1 RES1   0.0000
    22 O22     -0.1808  -7.5094 -16.1020   O.2       1 RES1   0.0000
    23 C23     -0.6007  -7.1206 -15.0199   C.2       1 RES1   0.0000
    24 N24     -1.5984  -7.2184 -13.0119   N.pl3     1 RES1   0.0000
    25 C25     -1.0832 -11.6911 -13.3372   C.3       1 RES1   0.0000
    26 H26     -0.6331 -12.2196 -12.4981   H         1 RES1   0.0000
    27 H27     -0.6343 -12.0371 -14.2671   H         1 RES1   0.0000
    28 C28     -3.2435 -11.2227 -14.4623   C.3       1 RES1   0.0000
    29 H29     -2.8590 -11.5671 -15.4212   H         1 RES1   0.0000
    30 H30     -4.3132 -11.4194 -14.4083   H         1 RES1   0.0000
    31 C31     -3.0042  -9.7256 -14.3371   C.3       1 RES1   0.0000
    32 H32     -3.4589  -9.2199 -15.1876   H         1 RES1   0.0000
    33 H33     -3.4608  -9.3678 -13.4154   H         1 RES1   0.0000
    34 C34     -0.8406 -10.1997 -13.1835   C.3       1 RES1   0.0000
    35 H35     -1.2472  -9.8704 -12.2284   H         1 RES1   0.0000
    36 H36      0.2315 -10.0101 -13.2063   H         1 RES1   0.0000
    37 N37     -2.5535 -11.9614 -13.3641   N.4       1 RES1   1.0000
    38 H38     -2.9545 -11.6761 -12.4764   H         1 RES1   0.0000
    39 H39     -2.7004 -12.9568 -13.4974   H         1 RES1   0.0000
    40 N40     -2.6992  -4.6898 -11.8302   N.ar      1 RES1   0.0000
    41 C41     -0.7580  -3.2243 -10.6488   C.ar      1 RES1   0.0000
    42 H42      0.0265  -2.6440 -10.1743   H         1 RES1   0.0000
    43 N43     -4.2293  -3.4806 -10.6241   N.pl3     1 RES1   0.0000
    44 H44     -4.4259  -2.7805  -9.9089   H         1 RES1   0.0000
    45 C45     -0.3913  -4.1856 -11.5689   C.ar      1 RES1   0.0000
    46 H46      0.6486  -4.3597 -11.8246   H         1 RES1   0.0000
    47 C47     -2.9451  -3.7222 -10.9322   C.ar      1 RES1   0.0000
    48 N48     -2.0280  -2.9671 -10.3100   N.ar      1 RES1   0.0000
    49 C49     -5.3613  -4.2029 -11.2041   C.3       1 RES1   0.0000
    50 H50     -5.0508  -5.2393 -11.4084   H         1 RES1   0.0000
    51 C51     -5.8424  -3.5790 -12.4994   C.ar      1 RES1   0.0000
    52 C52     -6.4764  -4.2260 -10.1652   C.3       1 RES1   0.0000
    53 H53     -7.3360  -4.7818 -10.5337   H         1 RES1   0.0000
    54 H54     -6.1383  -4.6963  -9.2442   H         1 RES1   0.0000
    55 H55     -6.8027  -3.2152  -9.9293   H         1 RES1   0.0000
    56 C56     -6.7293  -2.4193 -14.8720   C.ar      1 RES1   0.0000
    57 H57     -7.0740  -1.9675 -15.7962   H         1 RES1   0.0000
    58 C58     -6.2987  -2.2689 -12.5223   C.ar      1 RES1   0.0000
    59 H59     -6.3107  -1.6896 -11.6050   H         1 RES1   0.0000
    60 C60     -5.8402  -4.2997 -13.6858   C.ar      1 RES1   0.0000
    61 H61     -5.4895  -5.3264 -13.6922   H         1 RES1   0.0000
    62 C62     -6.2810  -3.7218 -14.8644   C.ar      1 RES1   0.0000
    63 H63     -6.2729  -4.2970 -15.7843   H         1 RES1   0.0000
    64 C64     -6.7384  -1.6925 -13.7019   C.ar      1 RES1   0.0000
    65 H65     -7.0907  -0.6664 -13.7042   H         1 RES1   0.0000
@<TRIPOS>BOND
     1     1     5   ar
     2     1     6   ar
     3     1     2    1
     4     3     8   ar
     5     3     9   ar
     6     3     4    1
     7     5     9   ar
     8     5    11    1
     9     6     8   ar
    10     6     7    1
    11     8    12    1
    12     9    10    1
    13    11    20    2
    14    11    23    1
    15    13    14    1
    16    13    23   am
    17    13    24    1
    18    14    31    1
    19    14    34    1
    20    14    15    1
    21    16    24    1
    22    16    17    1
    23    16    18    1
    24    16    19    1
    25    20    21    1
    26    20    24    1
    27    21    40   ar
    28    21    45   ar
    29    22    23    2
    30    25    34    1
    31    25    37    1
    32    25    26    1
    33    25    27    1
    34    28    31    1
    35    28    37    1
    36    28    29    1
    37    28    30    1
    38    31    32    1
    39    31    33    1
    40    34    35    1
    41    34    36    1
    42    37    38    1
    43    37    39    1
    44    40    47   ar
    45    41    45   ar
    46    41    48   ar
    47    41    42    1
    48    43    47    1
    49    43    49    1
    50    43    44    1
    51    45    46    1
    52    47    48   ar
    53    49    51    1
    54    49    52    1
    55    49    50    1
    56    51    58   ar
    57    51    60   ar
    58    52    53    1
    59    52    54    1
    60    52    55    1
    61    56    62   ar
    62    56    64   ar
    63    56    57    1
    64    58    64   ar
    65    58    59    1
    66    60    62   ar
    67    60    61    1
    68    62    63    1
    69    64    65    1
@<TRIPOS>SUBSTRUCTURE
     1 RES1        1 GROUP             0 ****  ****    0  
@<TRIPOS>MOLECULE
LIGAND_00010
    65    69     1     0     0
SMALL
USER_CHARGES
****
Generated from the CSD

@<TRIPOS>ATOM
     1 C1      -0.4278  -3.4234 -14.9911   C.ar      1 RES1   0.0000
     2 H2      -1.5097  -3.4068 -14.9158   H         1 RES1   0.0000
     3 C3       2.3298  -3.4280 -15.1557   C.ar      1 RES1   0.0000
     4 H4       3.4132  -3.4198 -15.2151   H         1 RES1   0.0000
     5 C5       0.2584  -4.6050 -14.7273   C.ar      1 RES1   0.0000
     6 C6       0.2422  -2.2650 -15.3426   C.ar      1 RES1   0.0000
     7 H7      -0.3021  -1.3511 -15.5558   H         1 RES1   0.0000
     8 C8       1.6065  -2.2985 -15.4130   C.ar      1 RES1   0.0000
     9 C9       1.6473  -4.5824 -14.8187   C.ar      1 RES1   0.0000
    10 H10      2.2123  -5.4874 -14.6264   H         1 RES1   0.0000
    11 C11     -0.4533  -5.8668 -14.3417   C.2       1 RES1   0.0000
    12 F12      2.2724  -1.1614 -15.7528   F         1 RES1   0.0000
    13 N13     -1.2999  -7.9174 -14.1965   N.am      1 RES1   0.0000
    14 C14     -1.6525  -9.3642 -14.3935   C.3       1 RES1   0.0000
    15 H15     -1.1797  -9.7050 -15.3134   H         1 RES1   0.0000
    16 C16     -2.2977  -7.7936 -11.8799   C.3       1 RES1   0.0000
    17 H17     -2.8377  -7.0472 -11.3011   H         1 RES1   0.0000
    18 H18     -2.9996  -8.5753 -12.1630   H         1 RES1   0.0000
    19 H19     -1.5377  -8.2357 -11.2391   H         1 RES1   0.0000
    20 C20     -1.1594  -5.9688 -13.1688   C.2       1 RES1   0.0000
    21 C21     -1.4160  -4.9157 -12.1531   C.ar      1 RES1   0.0000
    22 O22     -0.0857  -7.5282 -16.0585   O.2       1 RES1   0.0000
    23 C23     -0.5519  -7.1283 -14.9997   C.2       1 RES1   0.0000
    24 N24     -1.6872  -7.1893 -13.0645   N.pl3     1 RES1   0.0000
    25 C25     -1.4387 -11.6810 -13.4375   C.3       1 RES1   0.0000
    26 H26     -1.0810 -12.2495 -12.5803   H         1 RES1   0.0000
    27 H27     -0.9511 -12.0423 -14.3417   H         1 RES1   0.0000
    28 C28     -3.4836 -11.0569 -14.6948   C.3       1 RES1   0.0000
    29 H29     -3.0581 -11.4120 -15.6323   H         1 RES1   0.0000
    30 H30     -4.5649 -11.1843 -14.7157   H         1 RES1   0.0000
    31 C31     -3.1579  -9.5805 -14.5263   C.3       1 RES1   0.0000
    32 H32     -3.5208  -9.0343 -15.3957   H         1 RES1   0.0000
    33 H33     -3.6518  -9.2069 -13.6306   H         1 RES1   0.0000
    34 C34     -1.1120 -10.2109 -13.2405   C.3       1 RES1   0.0000
    35 H35     -1.5602  -9.8693 -12.3086   H         1 RES1   0.0000
    36 H36     -0.0308 -10.0912 -13.1885   H         1 RES1   0.0000
    37 N37     -2.9181 -11.8544 -13.5671   N.4       1 RES1   1.0000
    38 H38     -3.3589 -11.5563 -12.7028   H         1 RES1   0.0000
    39 H39     -3.1191 -12.8362 -13.7282   H         1 RES1   0.0000
    40 N40     -0.8662  -5.0993 -10.9425   N.ar      1 RES1   0.0000
    41 C41     -2.3708  -2.8985 -11.3940   C.ar      1 RES1   0.0000
    42 H42     -2.9709  -2.0147 -11.5841   H         1 RES1   0.0000
    43 N43     -0.5809  -4.3597  -8.7908   N.pl3     1 RES1   0.0000
    44 H44     -0.0603  -5.2214  -8.6274   H         1 RES1   0.0000
    45 C45     -2.1938  -3.7996 -12.4246   C.ar      1 RES1   0.0000
    46 H46     -2.6438  -3.6432 -13.3994   H         1 RES1   0.0000
    47 C47     -1.1127  -4.1667 -10.0084   C.ar      1 RES1   0.0000
    48 N48     -1.8442  -3.0549 -10.1726   N.ar      1 RES1   0.0000
    49 C49     -0.7547  -3.4414  -7.6655   C.3       1 RES1   0.0000
    50 H50     -1.7493  -2.9752  -7.7415   H         1 RES1   0.0000
    51 C51      0.2922  -2.3450  -7.6473   C.ar      1 RES1   0.0000
    52 C52     -0.7013  -4.2650  -6.3841   C.3       1 RES1   0.0000
    53 H53     -0.8582  -3.6334  -5.5122   H         1 RES1   0.0000
    54 H54     -1.4690  -5.0359  -6.3866   H         1 RES1   0.0000
    55 H55      0.2665  -4.7512  -6.2800   H         1 RES1   0.0000
    56 C56      2.2271  -0.3412  -7.6128   C.ar      1 RES1   0.0000
    57 H57      2.9806   0.4393  -7.6001   H         1 RES1   0.0000
    58 C58      1.6399  -2.6607  -7.5515   C.ar      1 RES1   0.0000
    59 H59      1.9435  -3.7005  -7.4888   H         1 RES1   0.0000
    60 C60     -0.0702  -1.0072  -7.7231   C.ar      1 RES1   0.0000
    61 H61     -1.1181  -0.7359  -7.7969   H         1 RES1   0.0000
    62 C62      0.8927  -0.0123  -7.7062   C.ar      1 RES1   0.0000
    63 H63      0.5947   1.0292  -7.7669   H         1 RES1   0.0000
    64 C64      2.6013  -1.6646  -7.5355   C.ar      1 RES1   0.0000
    65 H65      3.6514  -1.9273  -7.4620   H         1 RES1   0.0000
@<TRIPOS>BOND
     1     1     5   ar
     2     1     6   ar
     3     1     2    1
     4     3     8   ar
     5     3     9   ar
     6     3     4    1
     7     5     9   ar
     8     5    11    1
     9     6     8   ar
    10     6     7    1
    11     8    12    1
    12     9    10    1
    13    11    20    2
    14    11    23    1
    15    13    14    1
    16    13    23   am
    17    13    24    1
    18    14    31    1
    19    14    34    1
    20    14    15    1
    21    16    24    1
    22    16    17    1
    23    16    18    1
    24    16    19    1
    25    20    21    1
    26    20    24    1
    27    21    40   ar
    28    21    45   ar
    29    22    23    2
    30    25    34    1
    31    25    37    1
    32    25    26    1
    33    25    27    1
    34    28    31    1
    35    28    37    1
    36    28    29    1
    37    28    30    1
    38    31    32    1
    39    31    33    1
    40    34    35    1
    41    34    36    1
    42    37    38    1
    43    37    39    1
    44    40    47   ar
    45    41    45   ar
    46    41    48   ar
    47    41    42    1
    48    43    47    1
    49    43    49    1
    50    43    44    1
    51    45    46    1
    52    47    48   ar
    53    49    51    1
    54    49    52    1
    55    49    50    1
    56    51    58   ar
    57    51    60   ar
    58    52    53    1
    59    52    54    1
    60    52    55    1
    61    56    62   ar
    62    56    64   ar
    63    56    57    1
    64    58    64   ar
    65    58    59    1
    66    60    62   ar
    67    60    61    1
    68    62    63    1
    69    64    65    1
@<TRIPOS>SUBSTRUCTURE
     1 RES1        1 GROUP             0 ****  ****    0  
@<TRIPOS>MOLECULE
LIGAND_00011
    65    69     1     0     0
SMALL
USER_CHARGES
****
Generated from the CSD

@<TRIPOS>ATOM
     1 C1      -0.4278  -3.4234 -14.9911   C.ar      1 RES1   0.0000
     2 H2      -1.5097  -3.4068 -14.9158   H         1 RES1   0.0000
     3 C3       2.3298  -3.4280 -15.1557   C.ar      1 RES1   0.0000
     4 H4       3.4132  -3.4197 -15.2151   H         1 RES1   0.0000
     5 C5       0.2584  -4.6050 -14.7273   C.ar      1 RES1   0.0000
     6 C6       0.2422  -2.2650 -15.3426   C.ar      1 RES1   0.0000
     7 H7      -0.3021  -1.3511 -15.5558   H         1 RES1   0.0000
     8 C8       1.6064  -2.2985 -15.4130   C.ar      1 RES1   0.0000
     9 C9       1.6473  -4.5824 -14.8187   C.ar      1 RES1   0.0000
    10 H10      2.2123  -5.4874 -14.6264   H         1 RES1   0.0000
    11 C11     -0.4533  -5.8668 -14.3417   C.2       1 RES1   0.0000
    12 F12      2.2724  -1.1614 -15.7528   F         1 RES1   0.0000
    13 N13     -1.2999  -7.9174 -14.1965   N.am      1 RES1   0.0000
    14 C14     -1.6525  -9.3642 -14.3935   C.3       1 RES1   0.0000
    15 H15     -1.1797  -9.7050 -15.3134   H         1 RES1   0.0000
    16 C16     -2.2977  -7.7936 -11.8799   C.3       1 RES1   0.0000
    17 H17     -2.8377  -7.0472 -11.3011   H         1 RES1   0.0000
    18 H18     -2.9996  -8.5753 -12.1630   H         1 RES1   0.0000
    19 H19     -1.5377  -8.2357 -11.2391   H         1 RES1   0.0000
    20 C20     -1.1594  -5.9688 -13.1688   C.2       1 RES1   0.0000
    21 C21     -1.4160  -4.9157 -12.1531   C.ar      1 RES1   0.0000
    22 O22     -0.0857  -7.5282 -16.0585   O.2       1 RES1   0.0000
    23 C23     -0.5519  -7.1283 -14.9997   C.2       1 RES1   0.0000
    24 N24     -1.6872  -7.1893 -13.0645   N.pl3     1 RES1   0.0000
    25 C25     -1.4386 -11.6810 -13.4375   C.3       1 RES1   0.0000
    26 H26     -1.0810 -12.2495 -12.5803   H         1 RES1   0.0000
    27 H27     -0.9511 -12.0423 -14.3417   H         1 RES1   0.0000
    28 C28     -3.4836 -11.0569 -14.6948   C.3       1 RES1   0.0000
    29 H29     -3.0581 -11.4120 -15.6323   H         1 RES1   0.0000
    30 H30     -4.5649 -11.1843 -14.7157   H         1 RES1   0.0000
    31 C31     -3.1579  -9.5806 -14.5263   C.3       1 RES1   0.0000
    32 H32     -3.5208  -9.0343 -15.3957   H         1 RES1   0.0000
    33 H33     -3.6518  -9.2069 -13.6306   H         1 RES1   0.0000
    34 C34     -1.1120 -10.2109 -13.2405   C.3       1 RES1   0.0000
    35 H35     -1.5602  -9.8693 -12.3086   H         1 RES1   0.0000
    36 H36     -0.0308 -10.0912 -13.1885   H         1 RES1   0.0000
    37 N37     -2.9181 -11.8545 -13.5671   N.4       1 RES1   1.0000
    38 H38     -3.3589 -11.5563 -12.7028   H         1 RES1   0.0000
    39 H39     -3.1191 -12.8362 -13.7282   H         1 RES1   0.0000
    40 N40     -0.8662  -5.0993 -10.9425   N.ar      1 RES1   0.0000
    41 C41     -2.3708  -2.8985 -11.3940   C.ar      1 RES1   0.0000
    42 H42     -2.9709  -2.0147 -11.5841   H         1 RES1   0.0000
    43 N43     -0.5809  -4.3597  -8.7908   N.pl3     1 RES1   0.0000
    44 H44     -0.7222  -3.6352  -8.0869   H         1 RES1   0.0000
    45 C45     -2.1938  -3.7996 -12.4246   C.ar      1 RES1   0.0000
    46 H46     -2.6438  -3.6432 -13.3994   H         1 RES1   0.0000
    47 C47     -1.1127  -4.1667 -10.0084   C.ar      1 RES1   0.0000
    48 N48     -1.8442  -3.0549 -10.1726   N.ar      1 RES1   0.0000
    49 C49      0.2414  -5.5140  -8.4291   C.3       1 RES1   0.0000
    50 H50      0.8150  -5.8295  -9.3144   H         1 RES1   0.0000
    51 C51     -0.5894  -6.6878  -7.9489   C.ar      1 RES1   0.0000
    52 C52      1.2207  -5.0645  -7.3511   C.3       1 RES1   0.0000
    53 H53      1.8824  -5.8798  -7.0661   H         1 RES1   0.0000
    54 H54      1.8340  -4.2383  -7.7048   H         1 RES1   0.0000
    55 H55      0.6881  -4.7342  -6.4617   H         1 RES1   0.0000
    56 C56     -2.1217  -8.8357  -7.0550   C.ar      1 RES1   0.0000
    57 H57     -2.7190  -9.6721  -6.7074   H         1 RES1   0.0000
    58 C58     -1.4081  -6.5615  -6.8358   C.ar      1 RES1   0.0000
    59 H59     -1.4515  -5.6151  -6.3071   H         1 RES1   0.0000
    60 C60     -0.5494  -7.9100  -8.6056   C.ar      1 RES1   0.0000
    61 H61      0.0847  -8.0331  -9.4773   H         1 RES1   0.0000
    62 C62     -1.3119  -8.9767  -8.1604   C.ar      1 RES1   0.0000
    63 H63     -1.2711  -9.9259  -8.6841   H         1 RES1   0.0000
    64 C64     -2.1704  -7.6289  -6.3925   C.ar      1 RES1   0.0000
    65 H65     -2.8072  -7.5143  -5.5217   H         1 RES1   0.0000
@<TRIPOS>BOND
     1     1     5   ar
     2     1     6   ar
     3     1     2    1
     4     3     8   ar
     5     3     9   ar
     6     3     4    1
     7     5     9   ar
     8     5    11    1
     9     6     8   ar
    10     6     7    1
    11     8    12    1
    12     9    10    1
    13    11    20    2
    14    11    23    1
    15    13    14    1
    16    13    23   am
    17    13    24    1
    18    14    31    1
    19    14    34    1
    20    14    15    1
    21    16    24    1
    22    16    17    1
    23    16    18    1
    24    16    19    1
    25    20    21    1
    26    20    24    1
    27    21    40   ar
    28    21    45   ar
    29    22    23    2
    30    25    34    1
    31    25    37    1
    32    25    26    1
    33    25    27    1
    34    28    31    1
    35    28    37    1
    36    28    29    1
    37    28    30    1
    38    31    32    1
    39    31    33    1
    40    34    35    1
    41    34    36    1
    42    37    38    1
    43    37    39    1
    44    40    47   ar
    45    41    45   ar
    46    41    48   ar
    47    41    42    1
    48    43    47    1
    49    43    49    1
    50    43    44    1
    51    45    46    1
    52    47    48   ar
    53    49    51    1
    54    49    52    1
    55    49    50    1
    56    51    58   ar
    57    51    60   ar
    58    52    53    1
    59    52    54    1
    60    52    55    1
    61    56    62   ar
    62    56    64   ar
    63    56    57    1
    64    58    64   ar
    65    58    59    1
    66    60    62   ar
    67    60    61    1
    68    62    63    1
    69    64    65    1
@<TRIPOS>SUBSTRUCTURE
     1 RES1        1 GROUP             0 ****  ****    0  
@<TRIPOS>MOLECULE
LIGAND_00012
    65    69     1     0     0
SMALL
USER_CHARGES
****
Generated from the CSD

@<TRIPOS>ATOM
     1 C1      -0.7665  -3.8368 -15.9793   C.ar      1 RES1   0.0000
     2 H2      -1.6386  -4.2806 -16.4472   H         1 RES1   0.0000
     3 C3       1.4312  -2.6667 -14.7823   C.ar      1 RES1   0.0000
     4 H4       2.2891  -2.1972 -14.3125   H         1 RES1   0.0000
     5 C5      -0.1377  -4.5040 -14.9322   C.ar      1 RES1   0.0000
     6 C6      -0.3054  -2.6139 -16.4336   C.ar      1 RES1   0.0000
     7 H7      -0.7964  -2.1059 -17.2569   H         1 RES1   0.0000
     8 C8       0.7821  -2.0597 -15.8194   C.ar      1 RES1   0.0000
     9 C9       0.9686  -3.8949 -14.3467   C.ar      1 RES1   0.0000
    10 H10      1.4860  -4.3908 -13.5333   H         1 RES1   0.0000
    11 C11     -0.6279  -5.8274 -14.4266   C.2       1 RES1   0.0000
    12 F12      1.2378  -0.8546 -16.2574   F         1 RES1   0.0000
    13 N13     -1.1809  -7.9592 -14.1231   N.am      1 RES1   0.0000
    14 C14     -1.3687  -9.4452 -14.2378   C.3       1 RES1   0.0000
    15 H15     -0.9779  -9.7615 -15.2038   H         1 RES1   0.0000
    16 C16     -1.8818  -7.8671 -11.6987   C.3       1 RES1   0.0000
    17 H17     -2.4341  -7.1704 -11.0714   H         1 RES1   0.0000
    18 H18     -2.5088  -8.7400 -11.8683   H         1 RES1   0.0000
    19 H19     -0.9961  -8.1863 -11.1534   H         1 RES1   0.0000
    20 C20     -1.1594  -5.9688 -13.1688   C.2       1 RES1   0.0000
    21 C21     -1.4160  -4.9157 -12.1531   C.ar      1 RES1   0.0000
    22 O22     -0.2743  -7.4979 -16.1375   O.2       1 RES1   0.0000
    23 C23     -0.6484  -7.1166 -15.0361   C.2       1 RES1   0.0000
    24 N24     -1.5098  -7.2399 -12.9673   N.pl3     1 RES1   0.0000
    25 C25     -0.7411 -11.6780 -13.2644   C.3       1 RES1   0.0000
    26 H26     -0.2073 -12.1636 -12.4487   H         1 RES1   0.0000
    27 H27     -0.3312 -12.0123 -14.2163   H         1 RES1   0.0000
    28 C28     -2.9927 -11.3612 -14.2553   C.3       1 RES1   0.0000
    29 H29     -2.6489 -11.6983 -15.2321   H         1 RES1   0.0000
    30 H30     -4.0428 -11.6215 -14.1303   H         1 RES1   0.0000
    31 C31     -2.8388  -9.8504 -14.1659   C.3       1 RES1   0.0000
    32 H32     -3.3765  -9.3881 -14.9923   H         1 RES1   0.0000
    33 H33     -3.2577  -9.5050 -13.2218   H         1 RES1   0.0000
    34 C34     -0.5818 -10.1722 -13.1466   C.3       1 RES1   0.0000
    35 H35     -0.9469  -9.8516 -12.1721   H         1 RES1   0.0000
    36 H36      0.4730  -9.9183 -13.2406   H         1 RES1   0.0000
    37 N37     -2.1908 -12.0374 -13.1936   N.4       1 RES1   1.0000
    38 H38     -2.5518 -11.7616 -12.2859   H         1 RES1   0.0000
    39 H39     -2.2840 -13.0421 -13.3038   H         1 RES1   0.0000
    40 N40     -2.6992  -4.6898 -11.8302   N.ar      1 RES1   0.0000
    41 C41     -0.7580  -3.2243 -10.6488   C.ar      1 RES1   0.0000
    42 H42      0.0265  -2.6440 -10.1743   H         1 RES1   0.0000
    43 N43     -4.2293  -3.4806 -10.6241   N.pl3     1 RES1   0.0000
    44 H44     -4.4259  -2.7805  -9.9089   H         1 RES1   0.0000
    45 C45     -0.3913  -4.1856 -11.5689   C.ar      1 RES1   0.0000
    46 H46      0.6486  -4.3597 -11.8246   H         1 RES1   0.0000
    47 C47     -2.9451  -3.7222 -10.9322   C.ar      1 RES1   0.0000
    48 N48     -2.0280  -2.9671 -10.3100   N.ar      1 RES1   0.0000
    49 C49     -5.3613  -4.2029 -11.2041   C.3       1 RES1   0.0000
    50 H50     -5.0508  -5.2393 -11.4084   H         1 RES1   0.0000
    51 C51     -5.8424  -3.5790 -12.4994   C.ar      1 RES1   0.0000
    52 C52     -6.4764  -4.2260 -10.1652   C.3       1 RES1   0.0000
    53 H53     -7.3360  -4.7818 -10.5337   H         1 RES1   0.0000
    54 H54     -6.1383  -4.6963  -9.2442   H         1 RES1   0.0000
    55 H55     -6.8027  -3.2152  -9.9293   H         1 RES1   0.0000
    56 C56     -6.7293  -2.4193 -14.8720   C.ar      1 RES1   0.0000
    57 H57     -7.0740  -1.9675 -15.7962   H         1 RES1   0.0000
    58 C58     -6.2987  -2.2689 -12.5223   C.ar      1 RES1   0.0000
    59 H59     -6.3107  -1.6896 -11.6050   H         1 RES1   0.0000
    60 C60     -5.8402  -4.2997 -13.6858   C.ar      1 RES1   0.0000
    61 H61     -5.4895  -5.3264 -13.6922   H         1 RES1   0.0000
    62 C62     -6.2810  -3.7218 -14.8644   C.ar      1 RES1   0.0000
    63 H63     -6.2729  -4.2970 -15.7843   H         1 RES1   0.0000
    64 C64     -6.7384  -1.6925 -13.7019   C.ar      1 RES1   0.0000
    65 H65     -7.0907  -0.6664 -13.7042   H         1 RES1   0.0000
@<TRIPOS>BOND
     1     1     5   ar
     2     1     6   ar
     3     1     2    1
     4     3     8   ar
     5     3     9   ar
     6     3     4    1
     7     5     9   ar
     8     5    11    1
     9     6     8   ar
    10     6     7    1
    11     8    12    1
    12     9    10    1
    13    11    20    2
    14    11    23    1
    15    13    14    1
    16    13    23   am
    17    13    24    1
    18    14    31    1
    19    14    34    1
    20    14    15    1
    21    16    24    1
    22    16    17    1
    23    16    18    1
    24    16    19    1
    25    20    21    1
    26    20    24    1
    27    21    40   ar
    28    21    45   ar
    29    22    23    2
    30    25    34    1
    31    25    37    1
    32    25    26    1
    33    25    27    1
    34    28    31    1
    35    28    37    1
    36    28    29    1
    37    28    30    1
    38    31    32    1
    39    31    33    1
    40    34    35    1
    41    34    36    1
    42    37    38    1
    43    37    39    1
    44    40    47   ar
    45    41    45   ar
    46    41    48   ar
    47    41    42    1
    48    43    47    1
    49    43    49    1
    50    43    44    1
    51    45    46    1
    52    47    48   ar
    53    49    51    1
    54    49    52    1
    55    49    50    1
    56    51    58   ar
    57    51    60   ar
    58    52    53    1
    59    52    54    1
    60    52    55    1
    61    56    62   ar
    62    56    64   ar
    63    56    57    1
    64    58    64   ar
    65    58    59    1
    66    60    62   ar
    67    60    61    1
    68    62    63    1
    69    64    65    1
@<TRIPOS>SUBSTRUCTURE
     1 RES1        1 GROUP             0 ****  ****    0  
@<TRIPOS>MOLECULE
LIGAND_00013
    65    69     1     0     0
SMALL
USER_CHARGES
****
Generated from the CSD

@<TRIPOS>ATOM
     1 C1       0.3359  -4.0444 -15.7323   C.ar      1 RES1   0.0000
     2 H2      -0.3718  -4.4422 -16.4516   H         1 RES1   0.0000
     3 C3       2.1186  -2.9892 -13.9046   C.ar      1 RES1   0.0000
     4 H4       2.8149  -2.5644 -13.1891   H         1 RES1   0.0000
     5 C5       0.5126  -4.6946 -14.5146   C.ar      1 RES1   0.0000
     6 C6       1.0410  -2.8953 -16.0437   C.ar      1 RES1   0.0000
     7 H7       0.9036  -2.4008 -16.9995   H         1 RES1   0.0000
     8 C8       1.9135  -2.3965 -15.1178   C.ar      1 RES1   0.0000
     9 C9       1.4177  -4.1446 -13.6113   C.ar      1 RES1   0.0000
    10 H10      1.5844  -4.6299 -12.6564   H         1 RES1   0.0000
    11 C11     -0.2467  -5.9380 -14.1617   C.2       1 RES1   0.0000
    12 F12      2.6063  -1.2636 -15.4151   F         1 RES1   0.0000
    13 N13     -1.2406  -7.9410 -14.1570   N.am      1 RES1   0.0000
    14 C14     -1.5106  -9.4109 -14.3092   C.3       1 RES1   0.0000
    15 H15     -0.9490  -9.7701 -15.1703   H         1 RES1   0.0000
    16 C16     -2.9634  -7.4981 -12.4712   C.3       1 RES1   0.0000
    17 H17     -3.2161  -6.7696 -11.7036   H         1 RES1   0.0000
    18 H18     -3.7034  -7.4237 -13.2653   H         1 RES1   0.0000
    19 H19     -3.0343  -8.4914 -12.0331   H         1 RES1   0.0000
    20 C20     -1.0688  -6.0097 -13.0848   C.2       1 RES1   0.0000
    21 C21     -1.4087  -4.9383 -12.1137   C.ar      1 RES1   0.0000
    22 O22      0.2750  -7.5989 -15.8623   O.2       1 RES1   0.0000
    23 C23     -0.3156  -7.1911 -14.8707   C.2       1 RES1   0.0000
    24 N24     -1.6169  -7.2574 -12.9912   N.3       1 RES1   0.0000
    25 C25     -1.2721 -11.6680 -13.2251   C.3       1 RES1   0.0000
    26 H26     -0.9608 -12.1784 -12.3148   H         1 RES1   0.0000
    27 H27     -0.6961 -12.0463 -14.0684   H         1 RES1   0.0000
    28 C28     -3.2328 -11.2030 -14.6712   C.3       1 RES1   0.0000
    29 H29     -2.7163 -11.5797 -15.5528   H         1 RES1   0.0000
    30 H30     -4.3020 -11.3838 -14.7719   H         1 RES1   0.0000
    31 C31     -2.9887  -9.7063 -14.5509   C.3       1 RES1   0.0000
    32 H32     -3.3032  -9.2190 -15.4726   H         1 RES1   0.0000
    33 H33     -3.5708  -9.3164 -13.7172   H         1 RES1   0.0000
    34 C34     -1.0290 -10.1762 -13.0760   C.3       1 RES1   0.0000
    35 H35     -1.5671  -9.8145 -12.2011   H         1 RES1   0.0000
    36 H36      0.0378 -10.0017 -12.9440   H         1 RES1   0.0000
    37 N37     -2.7266 -11.9193 -13.4636   N.4       1 RES1   1.0000
    38 H38     -3.2498 -11.6036 -12.6532   H         1 RES1   0.0000
    39 H39     -2.8693 -12.9161 -13.5911   H         1 RES1   0.0000
    40 N40     -1.0980  -5.1692 -10.8285   N.ar      1 RES1   0.0000
    41 C41     -2.3055  -2.8456 -11.5027   C.ar      1 RES1   0.0000
    42 H42     -2.7847  -1.9129 -11.7813   H         1 RES1   0.0000
    43 N43     -1.1330  -4.4573  -8.6489   N.pl3     1 RES1   0.0000
    44 H44     -0.7250  -5.3611  -8.4102   H         1 RES1   0.0000
    45 C45     -2.0280  -3.7587 -12.5000   C.ar      1 RES1   0.0000
    46 H46     -2.2846  -3.5636 -13.5360   H         1 RES1   0.0000
    47 C47     -1.4239  -4.2187  -9.9377   C.ar      1 RES1   0.0000
    48 N48     -2.0171  -3.0474 -10.2104   N.ar      1 RES1   0.0000
    49 C49     -1.4226  -3.5275  -7.5575   C.3       1 RES1   0.0000
    50 H50     -2.3447  -2.9765  -7.7992   H         1 RES1   0.0000
    51 C51     -0.3052  -2.5263  -7.3396   C.ar      1 RES1   0.0000
    52 C52     -1.6658  -4.3527  -6.2993   C.3       1 RES1   0.0000
    53 H53     -1.9188  -3.7099  -5.4588   H         1 RES1   0.0000
    54 H54     -2.4842  -5.0539  -6.4479   H         1 RES1   0.0000
    55 H55     -0.7766  -4.9212  -6.0349   H         1 RES1   0.0000
    56 C56      1.7578  -0.6982  -6.9362   C.ar      1 RES1   0.0000
    57 H57      2.5613   0.0138  -6.7799   H         1 RES1   0.0000
    58 C58      0.9726  -2.9579  -7.0142   C.ar      1 RES1   0.0000
    59 H59      1.1704  -4.0202  -6.9153   H         1 RES1   0.0000
    60 C60     -0.5328  -1.1620  -7.4571   C.ar      1 RES1   0.0000
    61 H61     -1.5243  -0.8006  -7.7089   H         1 RES1   0.0000
    62 C62      0.4937  -0.2545  -7.2567   C.ar      1 RES1   0.0000
    63 H63      0.3012   0.8089  -7.3526   H         1 RES1   0.0000
    64 C64      1.9979  -2.0492  -6.8150   C.ar      1 RES1   0.0000
    65 H65      2.9924  -2.4021  -6.5628   H         1 RES1   0.0000
@<TRIPOS>BOND
     1     1     5   ar
     2     1     6   ar
     3     1     2    1
     4     3     8   ar
     5     3     9   ar
     6     3     4    1
     7     5     9   ar
     8     5    11    1
     9     6     8   ar
    10     6     7    1
    11     8    12    1
    12     9    10    1
    13    11    20    2
    14    11    23    1
    15    13    14    1
    16    13    23   am
    17    13    24    1
    18    14    31    1
    19    14    34    1
    20    14    15    1
    21    16    24    1
    22    16    17    1
    23    16    18    1
    24    16    19    1
    25    20    21    1
    26    20    24    1
    27    21    40   ar
    28    21    45   ar
    29    22    23    2
    30    25    34    1
    31    25    37    1
    32    25    26    1
    33    25    27    1
    34    28    31    1
    35    28    37    1
    36    28    29    1
    37    28    30    1
    38    31    32    1
    39    31    33    1
    40    34    35    1
    41    34    36    1
    42    37    38    1
    43    37    39    1
    44    40    47   ar
    45    41    45   ar
    46    41    48   ar
    47    41    42    1
    48    43    47    1
    49    43    49    1
    50    43    44    1
    51    45    46    1
    52    47    48   ar
    53    49    51    1
    54    49    52    1
    55    49    50    1
    56    51    58   ar
    57    51    60   ar
    58    52    53    1
    59    52    54    1
    60    52    55    1
    61    56    62   ar
    62    56    64   ar
    63    56    57    1
    64    58    64   ar
    65    58    59    1
    66    60    62   ar
    67    60    61    1
    68    62    63    1
    69    64    65    1
@<TRIPOS>SUBSTRUCTURE
     1 RES1        1 GROUP             0 ****  ****    0  
@<TRIPOS>MOLECULE
LIGAND_00014
    65    69     1     0     0
SMALL
USER_CHARGES
****
Generated from the CSD

@<TRIPOS>ATOM
     1 C1       0.3359  -4.0444 -15.7323   C.ar      1 RES1   0.0000
     2 H2      -0.3718  -4.4422 -16.4516   H         1 RES1   0.0000
     3 C3       2.1186  -2.9892 -13.9046   C.ar      1 RES1   0.0000
     4 H4       2.8149  -2.5644 -13.1891   H         1 RES1   0.0000
     5 C5       0.5126  -4.6946 -14.5146   C.ar      1 RES1   0.0000
     6 C6       1.0410  -2.8953 -16.0437   C.ar      1 RES1   0.0000
     7 H7       0.9036  -2.4008 -16.9995   H         1 RES1   0.0000
     8 C8       1.9135  -2.3965 -15.1178   C.ar      1 RES1   0.0000
     9 C9       1.4177  -4.1446 -13.6113   C.ar      1 RES1   0.0000
    10 H10      1.5844  -4.6299 -12.6564   H         1 RES1   0.0000
    11 C11     -0.2467  -5.9380 -14.1617   C.2       1 RES1   0.0000
    12 F12      2.6063  -1.2636 -15.4151   F         1 RES1   0.0000
    13 N13     -1.2406  -7.9410 -14.1570   N.am      1 RES1   0.0000
    14 C14     -1.5106  -9.4109 -14.3092   C.3       1 RES1   0.0000
    15 H15     -0.9490  -9.7701 -15.1703   H         1 RES1   0.0000
    16 C16     -2.9634  -7.4981 -12.4712   C.3       1 RES1   0.0000
    17 H17     -3.2161  -6.7696 -11.7036   H         1 RES1   0.0000
    18 H18     -3.7034  -7.4236 -13.2653   H         1 RES1   0.0000
    19 H19     -3.0343  -8.4914 -12.0332   H         1 RES1   0.0000
    20 C20     -1.0688  -6.0097 -13.0848   C.2       1 RES1   0.0000
    21 C21     -1.4087  -4.9383 -12.1137   C.ar      1 RES1   0.0000
    22 O22      0.2750  -7.5989 -15.8623   O.2       1 RES1   0.0000
    23 C23     -0.3156  -7.1911 -14.8707   C.2       1 RES1   0.0000
    24 N24     -1.6169  -7.2574 -12.9912   N.3       1 RES1   0.0000
    25 C25     -1.2721 -11.6680 -13.2251   C.3       1 RES1   0.0000
    26 H26     -0.9608 -12.1784 -12.3148   H         1 RES1   0.0000
    27 H27     -0.6961 -12.0463 -14.0684   H         1 RES1   0.0000
    28 C28     -3.2328 -11.2030 -14.6712   C.3       1 RES1   0.0000
    29 H29     -2.7163 -11.5797 -15.5528   H         1 RES1   0.0000
    30 H30     -4.3020 -11.3838 -14.7719   H         1 RES1   0.0000
    31 C31     -2.9887  -9.7063 -14.5509   C.3       1 RES1   0.0000
    32 H32     -3.3032  -9.2190 -15.4726   H         1 RES1   0.0000
    33 H33     -3.5708  -9.3164 -13.7172   H         1 RES1   0.0000
    34 C34     -1.0290 -10.1762 -13.0760   C.3       1 RES1   0.0000
    35 H35     -1.5671  -9.8145 -12.2011   H         1 RES1   0.0000
    36 H36      0.0378 -10.0017 -12.9440   H         1 RES1   0.0000
    37 N37     -2.7266 -11.9193 -13.4636   N.4       1 RES1   1.0000
    38 H38     -3.2498 -11.6036 -12.6532   H         1 RES1   0.0000
    39 H39     -2.8693 -12.9161 -13.5911   H         1 RES1   0.0000
    40 N40     -1.0980  -5.1692 -10.8285   N.ar      1 RES1   0.0000
    41 C41     -2.3055  -2.8456 -11.5027   C.ar      1 RES1   0.0000
    42 H42     -2.7847  -1.9129 -11.7813   H         1 RES1   0.0000
    43 N43     -1.1330  -4.4573  -8.6489   N.pl3     1 RES1   0.0000
    44 H44     -1.3332  -3.7233  -7.9696   H         1 RES1   0.0000
    45 C45     -2.0280  -3.7587 -12.5000   C.ar      1 RES1   0.0000
    46 H46     -2.2846  -3.5636 -13.5360   H         1 RES1   0.0000
    47 C47     -1.4239  -4.2187  -9.9377   C.ar      1 RES1   0.0000
    48 N48     -2.0171  -3.0474 -10.2104   N.ar      1 RES1   0.0000
    49 C49     -0.4892  -5.6790  -8.1666   C.3       1 RES1   0.0000
    50 H50      0.2019  -6.0432  -8.9425   H         1 RES1   0.0000
    51 C51     -1.4890  -6.7758  -7.8574   C.ar      1 RES1   0.0000
    52 C52      0.3203  -5.3165  -6.9270   C.3       1 RES1   0.0000
    53 H53      0.8492  -6.1863  -6.5431   H         1 RES1   0.0000
    54 H54      1.0548  -4.5469  -7.1551   H         1 RES1   0.0000
    55 H55     -0.3300  -4.9411  -6.1397   H         1 RES1   0.0000
    56 C56     -3.3331  -8.7821  -7.2787   C.ar      1 RES1   0.0000
    57 H57     -4.0517  -9.5633  -7.0540   H         1 RES1   0.0000
    58 C58     -2.4767  -6.5788  -6.9031   C.ar      1 RES1   0.0000
    59 H59     -2.5310  -5.6322  -6.3757   H         1 RES1   0.0000
    60 C60     -1.4392  -7.9969  -8.5157   C.ar      1 RES1   0.0000
    61 H61     -0.6747  -8.1748  -9.2646   H         1 RES1   0.0000
    62 C62     -2.3568  -8.9931  -8.2273   C.ar      1 RES1   0.0000
    63 H63     -2.3061  -9.9422  -8.7503   H         1 RES1   0.0000
    64 C64     -3.3937  -7.5757  -6.6165   C.ar      1 RES1   0.0000
    65 H65     -4.1615  -7.4061  -5.8690   H         1 RES1   0.0000
@<TRIPOS>BOND
     1     1     5   ar
     2     1     6   ar
     3     1     2    1
     4     3     8   ar
     5     3     9   ar
     6     3     4    1
     7     5     9   ar
     8     5    11    1
     9     6     8   ar
    10     6     7    1
    11     8    12    1
    12     9    10    1
    13    11    20    2
    14    11    23    1
    15    13    14    1
    16    13    23   am
    17    13    24    1
    18    14    31    1
    19    14    34    1
    20    14    15    1
    21    16    24    1
    22    16    17    1
    23    16    18    1
    24    16    19    1
    25    20    21    1
    26    20    24    1
    27    21    40   ar
    28    21    45   ar
    29    22    23    2
    30    25    34    1
    31    25    37    1
    32    25    26    1
    33    25    27    1
    34    28    31    1
    35    28    37    1
    36    28    29    1
    37    28    30    1
    38    31    32    1
    39    31    33    1
    40    34    35    1
    41    34    36    1
    42    37    38    1
    43    37    39    1
    44    40    47   ar
    45    41    45   ar
    46    41    48   ar
    47    41    42    1
    48    43    47    1
    49    43    49    1
    50    43    44    1
    51    45    46    1
    52    47    48   ar
    53    49    51    1
    54    49    52    1
    55    49    50    1
    56    51    58   ar
    57    51    60   ar
    58    52    53    1
    59    52    54    1
    60    52    55    1
    61    56    62   ar
    62    56    64   ar
    63    56    57    1
    64    58    64   ar
    65    58    59    1
    66    60    62   ar
    67    60    61    1
    68    62    63    1
    69    64    65    1
@<TRIPOS>SUBSTRUCTURE
     1 RES1        1 GROUP             0 ****  ****    0  
@<TRIPOS>MOLECULE
LIGAND_00015
    65    69     1     0     0
SMALL
USER_CHARGES
****
Generated from the CSD

@<TRIPOS>ATOM
     1 C1      -2.4793  -4.2530 -16.4101   C.ar      1 RES1   0.0000
     2 H2      -3.1362  -5.0584 -16.7201   H         1 RES1   0.0000
     3 C3      -0.8427  -2.1729 -15.6184   C.ar      1 RES1   0.0000
     4 H4      -0.2086  -1.3488 -15.3085   H         1 RES1   0.0000
     5 C5      -1.5965  -4.4580 -15.3540   C.ar      1 RES1   0.0000
     6 C6      -2.5412  -3.0390 -17.0712   C.ar      1 RES1   0.0000
     7 H7      -3.2259  -2.8917 -17.8997   H         1 RES1   0.0000
     8 C8      -1.7209  -2.0288 -16.6544   C.ar      1 RES1   0.0000
     9 C9      -0.7810  -3.3954 -14.9750   C.ar      1 RES1   0.0000
    10 H10     -0.0770  -3.5235 -14.1606   H         1 RES1   0.0000
    11 C11     -1.5206  -5.7662 -14.6259   C.2       1 RES1   0.0000
    12 F12     -1.7803  -0.8304 -17.2964   F         1 RES1   0.0000
    13 N13     -1.3114  -7.9562 -14.1607   N.am      1 RES1   0.0000
    14 C14     -1.6594  -9.4046 -14.3547   C.3       1 RES1   0.0000
    15 H15     -1.3267  -9.7019 -15.3481   H         1 RES1   0.0000
    16 C16     -1.1003  -7.7688 -11.7605   C.3       1 RES1   0.0000
    17 H17     -1.7555  -8.4614 -11.2361   H         1 RES1   0.0000
    18 H18     -0.1682  -8.2852 -11.9802   H         1 RES1   0.0000
    19 H19     -0.8793  -6.9388 -11.0928   H         1 RES1   0.0000
    20 C20     -1.7513  -5.9390 -13.3057   C.2       1 RES1   0.0000
    21 C21     -2.0254  -4.9138 -12.2663   C.ar      1 RES1   0.0000
    22 O22     -1.0792  -7.3834 -16.3739   O.2       1 RES1   0.0000
    23 C23     -1.2553  -7.0526 -15.2086   C.2       1 RES1   0.0000
    24 N24     -1.7311  -7.2889 -12.9907   N.3       1 RES1   0.0000
    25 C25     -1.2520 -11.7453 -13.5290   C.3       1 RES1   0.0000
    26 H26     -0.7548 -12.3323 -12.7582   H         1 RES1   0.0000
    27 H27     -0.9018 -12.0633 -14.5099   H         1 RES1   0.0000
    28 C28     -3.4788 -11.1344 -14.4347   C.3       1 RES1   0.0000
    29 H29     -3.1953 -11.4467 -15.4386   H         1 RES1   0.0000
    30 H30     -4.5475 -11.2897 -14.2945   H         1 RES1   0.0000
    31 C31     -3.1624  -9.6563 -14.2635   C.3       1 RES1   0.0000
    32 H32     -3.6663  -9.0913 -15.0463   H         1 RES1   0.0000
    33 H33     -3.5204  -9.3259 -13.2896   H         1 RES1   0.0000
    34 C34     -0.9301 -10.2744 -13.3301   C.3       1 RES1   0.0000
    35 H35     -1.2367  -9.9761 -12.3286   H         1 RES1   0.0000
    36 H36      0.1434 -10.1279 -13.4398   H         1 RES1   0.0000
    37 N37     -2.7298 -11.9537 -13.4370   N.4       1 RES1   1.0000
    38 H38     -3.0386 -11.6962 -12.5050   H         1 RES1   0.0000
    39 H39     -2.9323 -12.9345 -13.6016   H         1 RES1   0.0000
    40 N40     -1.1072  -4.7783 -11.2966   N.ar      1 RES1   0.0000
    41 C41     -3.3226  -3.2287 -11.2491   C.ar      1 RES1   0.0000
    42 H42     -4.2112  -2.6061 -11.2397   H         1 RES1   0.0000
    43 N43     -0.4495  -3.7510  -9.3549   N.pl3     1 RES1   0.0000
    44 H44      0.3528  -4.3808  -9.3642   H         1 RES1   0.0000
    45 C45     -3.1749  -4.1373 -12.2777   C.ar      1 RES1   0.0000
    46 H46     -3.9235  -4.2406 -13.0562   H         1 RES1   0.0000
    47 C47     -1.3567  -3.8727 -10.3371   C.ar      1 RES1   0.0000
    48 N48     -2.4311  -3.0737 -10.2618   N.ar      1 RES1   0.0000
    49 C49     -0.5715  -2.8146  -8.2379   C.3       1 RES1   0.0000
    50 H50     -1.6381  -2.6970  -7.9914   H         1 RES1   0.0000
    51 C51      0.0021  -1.4494  -8.5629   C.ar      1 RES1   0.0000
    52 C52      0.1389  -3.4308  -7.0383   C.3       1 RES1   0.0000
    53 H53      0.0512  -2.7876  -6.1652   H         1 RES1   0.0000
    54 H54     -0.2895  -4.3995  -6.7898   H         1 RES1   0.0000
    55 H55      1.1968  -3.5724  -7.2494   H         1 RES1   0.0000
    56 C56      1.0662   1.0526  -9.1699   C.ar      1 RES1   0.0000
    57 H57      1.4800   2.0271  -9.4067   H         1 RES1   0.0000
    58 C58      1.0568  -1.3238  -9.4556   C.ar      1 RES1   0.0000
    59 H59      1.4723  -2.2108  -9.9223   H         1 RES1   0.0000
    60 C60     -0.5094  -0.2995  -7.9770   C.ar      1 RES1   0.0000
    61 H61     -1.3329  -0.3730  -7.2746   H         1 RES1   0.0000
    62 C62      0.0203   0.9434  -8.2800   C.ar      1 RES1   0.0000
    63 H63     -0.3900   1.8336  -7.8149   H         1 RES1   0.0000
    64 C64      1.5847  -0.0801  -9.7578   C.ar      1 RES1   0.0000
    65 H65      2.4083   0.0022 -10.4592   H         1 RES1   0.0000
@<TRIPOS>BOND
     1     1     5   ar
     2     1     6   ar
     3     1     2    1
     4     3     8   ar
     5     3     9   ar
     6     3     4    1
     7     5     9   ar
     8     5    11    1
     9     6     8   ar
    10     6     7    1
    11     8    12    1
    12     9    10    1
    13    11    20    2
    14    11    23    1
    15    13    14    1
    16    13    23   am
    17    13    24    1
    18    14    31    1
    19    14    34    1
    20    14    15    1
    21    16    24    1
    22    16    17    1
    23    16    18    1
    24    16    19    1
    25    20    21    1
    26    20    24    1
    27    21    40   ar
    28    21    45   ar
    29    22    23    2
    30    25    34    1
    31    25    37    1
    32    25    26    1
    33    25    27    1
    34    28    31    1
    35    28    37    1
    36    28    29    1
    37    28    30    1
    38    31    32    1
    39    31    33    1
    40    34    35    1
    41    34    36    1
    42    37    38    1
    43    37    39    1
    44    40    47   ar
    45    41    45   ar
    46    41    48   ar
    47    41    42    1
    48    43    47    1
    49    43    49    1
    50    43    44    1
    51    45    46    1
    52    47    48   ar
    53    49    51    1
    54    49    52    1
    55    49    50    1
    56    51    58   ar
    57    51    60   ar
    58    52    53    1
    59    52    54    1
    60    52    55    1
    61    56    62   ar
    62    56    64   ar
    63    56    57    1
    64    58    64   ar
    65    58    59    1
    66    60    62   ar
    67    60    61    1
    68    62    63    1
    69    64    65    1
@<TRIPOS>SUBSTRUCTURE
     1 RES1        1 GROUP             0 ****  ****    0  
@<TRIPOS>MOLECULE
LIGAND_00016
    65    69     1     0     0
SMALL
USER_CHARGES
****
Generated from the CSD

@<TRIPOS>ATOM
     1 C1      -2.4792  -4.2529 -16.4101   C.ar      1 RES1   0.0000
     2 H2      -3.1362  -5.0584 -16.7202   H         1 RES1   0.0000
     3 C3      -0.8426  -2.1729 -15.6183   C.ar      1 RES1   0.0000
     4 H4      -0.2085  -1.3488 -15.3085   H         1 RES1   0.0000
     5 C5      -1.5964  -4.4580 -15.3540   C.ar      1 RES1   0.0000
     6 C6      -2.5412  -3.0390 -17.0712   C.ar      1 RES1   0.0000
     7 H7      -3.2258  -2.8917 -17.8997   H         1 RES1   0.0000
     8 C8      -1.7208  -2.0288 -16.6544   C.ar      1 RES1   0.0000
     9 C9      -0.7809  -3.3954 -14.9750   C.ar      1 RES1   0.0000
    10 H10     -0.0770  -3.5235 -14.1606   H         1 RES1   0.0000
    11 C11     -1.5206  -5.7662 -14.6259   C.2       1 RES1   0.0000
    12 F12     -1.7802  -0.8304 -17.2963   F         1 RES1   0.0000
    13 N13     -1.3114  -7.9562 -14.1607   N.am      1 RES1   0.0000
    14 C14     -1.6595  -9.4046 -14.3547   C.3       1 RES1   0.0000
    15 H15     -1.3266  -9.7019 -15.3481   H         1 RES1   0.0000
    16 C16     -1.1004  -7.7688 -11.7605   C.3       1 RES1   0.0000
    17 H17     -1.7557  -8.4612 -11.2360   H         1 RES1   0.0000
    18 H18     -0.1684  -8.2855 -11.9802   H         1 RES1   0.0000
    19 H19     -0.8791  -6.9388 -11.0929   H         1 RES1   0.0000
    20 C20     -1.7513  -5.9390 -13.3057   C.2       1 RES1   0.0000
    21 C21     -2.0254  -4.9138 -12.2663   C.ar      1 RES1   0.0000
    22 O22     -1.0792  -7.3834 -16.3739   O.2       1 RES1   0.0000
    23 C23     -1.2553  -7.0526 -15.2086   C.2       1 RES1   0.0000
    24 N24     -1.7311  -7.2889 -12.9907   N.3       1 RES1   0.0000
    25 C25     -1.2523 -11.7453 -13.5289   C.3       1 RES1   0.0000
    26 H26     -0.7552 -12.3323 -12.7580   H         1 RES1   0.0000
    27 H27     -0.9019 -12.0633 -14.5097   H         1 RES1   0.0000
    28 C28     -3.4789 -11.1344 -14.4349   C.3       1 RES1   0.0000
    29 H29     -3.1952 -11.4467 -15.4388   H         1 RES1   0.0000
    30 H30     -4.5476 -11.2896 -14.2949   H         1 RES1   0.0000
    31 C31     -3.1625  -9.6563 -14.2638   C.3       1 RES1   0.0000
    32 H32     -3.6662  -9.0912 -15.0467   H         1 RES1   0.0000
    33 H33     -3.5206  -9.3258 -13.2899   H         1 RES1   0.0000
    34 C34     -0.9303 -10.2744 -13.3300   C.3       1 RES1   0.0000
    35 H35     -1.2371  -9.9760 -12.3286   H         1 RES1   0.0000
    36 H36      0.1432 -10.1279 -13.4395   H         1 RES1   0.0000
    37 N37     -2.7300 -11.9536 -13.4371   N.4       1 RES1   1.0000
    38 H38     -3.0390 -11.6961 -12.5051   H         1 RES1   0.0000
    39 H39     -2.9326 -12.9345 -13.6017   H         1 RES1   0.0000
    40 N40     -1.1072  -4.7783 -11.2966   N.ar      1 RES1   0.0000
    41 C41     -3.3226  -3.2287 -11.2491   C.ar      1 RES1   0.0000
    42 H42     -4.2112  -2.6061 -11.2397   H         1 RES1   0.0000
    43 N43     -0.4495  -3.7510  -9.3549   N.pl3     1 RES1   0.0000
    44 H44     -0.6051  -3.0341  -8.6463   H         1 RES1   0.0000
    45 C45     -3.1749  -4.1373 -12.2777   C.ar      1 RES1   0.0000
    46 H46     -3.9235  -4.2406 -13.0562   H         1 RES1   0.0000
    47 C47     -1.3567  -3.8727 -10.3371   C.ar      1 RES1   0.0000
    48 N48     -2.4311  -3.0737 -10.2618   N.ar      1 RES1   0.0000
    49 C49      0.7798  -4.5394  -9.2723   C.3       1 RES1   0.0000
    50 H50      1.1297  -4.7549 -10.2938   H         1 RES1   0.0000
    51 C51      0.5757  -5.8537  -8.5447   C.ar      1 RES1   0.0000
    52 C52      1.8296  -3.6867  -8.5694   C.3       1 RES1   0.0000
    53 H53      2.7790  -4.2147  -8.5091   H         1 RES1   0.0000
    54 H54      1.9940  -2.7543  -9.1056   H         1 RES1   0.0000
    55 H55      1.5126  -3.4439  -7.5573   H         1 RES1   0.0000
    56 C56      0.1892  -8.2622  -7.1993   C.ar      1 RES1   0.0000
    57 H57      0.0384  -9.2006  -6.6759   H         1 RES1   0.0000
    58 C58     -0.3824  -5.9642  -7.5473   C.ar      1 RES1   0.0000
    59 H59     -0.9879  -5.1020  -7.2880   H         1 RES1   0.0000
    60 C60      1.3393  -6.9706  -8.8553   C.ar      1 RES1   0.0000
    61 H61      2.0958  -6.9078  -9.6305   H         1 RES1   0.0000
    62 C62      1.1458  -8.1672  -8.1860   C.ar      1 RES1   0.0000
    63 H63      1.7496  -9.0321  -8.4399   H         1 RES1   0.0000
    64 C64     -0.5750  -7.1617  -6.8796   C.ar      1 RES1   0.0000
    65 H65     -1.3293  -7.2330  -6.1031   H         1 RES1   0.0000
@<TRIPOS>BOND
     1     1     5   ar
     2     1     6   ar
     3     1     2    1
     4     3     8   ar
     5     3     9   ar
     6     3     4    1
     7     5     9   ar
     8     5    11    1
     9     6     8   ar
    10     6     7    1
    11     8    12    1
    12     9    10    1
    13    11    20    2
    14    11    23    1
    15    13    14    1
    16    13    23   am
    17    13    24    1
    18    14    31    1
    19    14    34    1
    20    14    15    1
    21    16    24    1
    22    16    17    1
    23    16    18    1
    24    16    19    1
    25    20    21    1
    26    20    24    1
    27    21    40   ar
    28    21    45   ar
    29    22    23    2
    30    25    34    1
    31    25    37    1
    32    25    26    1
    33    25    27    1
    34    28    31    1
    35    28    37    1
    36    28    29    1
    37    28    30    1
    38    31    32    1
    39    31    33    1
    40    34    35    1
    41    34    36    1
    42    37    38    1
    43    37    39    1
    44    40    47   ar
    45    41    45   ar
    46    41    48   ar
    47    41    42    1
    48    43    47    1
    49    43    49    1
    50    43    44    1
    51    45    46    1
    52    47    48   ar
    53    49    51    1
    54    49    52    1
    55    49    50    1
    56    51    58   ar
    57    51    60   ar
    58    52    53    1
    59    52    54    1
    60    52    55    1
    61    56    62   ar
    62    56    64   ar
    63    56    57    1
    64    58    64   ar
    65    58    59    1
    66    60    62   ar
    67    60    61    1
    68    62    63    1
    69    64    65    1
@<TRIPOS>SUBSTRUCTURE
     1 RES1        1 GROUP             0 ****  ****    0  
@<TRIPOS>MOLECULE
LIGAND_00017
    65    69     1     0     0
SMALL
USER_CHARGES
****
Generated from the CSD

@<TRIPOS>ATOM
     1 C1      -3.0248  -3.8117 -15.3691   C.ar      1 RES1   0.0000
     2 H2      -3.8579  -4.2218 -14.8086   H         1 RES1   0.0000
     3 C3      -0.9094  -2.7260 -16.7756   C.ar      1 RES1   0.0000
     4 H4      -0.0813  -2.2894 -17.3241   H         1 RES1   0.0000
     5 C5      -1.8085  -4.4880 -15.3803   C.ar      1 RES1   0.0000
     6 C6      -3.1929  -2.6215 -16.0545   C.ar      1 RES1   0.0000
     7 H7      -4.1477  -2.1065 -16.0477   H         1 RES1   0.0000
     8 C8      -2.1271  -2.1087 -16.7387   C.ar      1 RES1   0.0000
     9 C9      -0.7584  -3.9218 -16.0977   C.ar      1 RES1   0.0000
    10 H10      0.2005  -4.4262 -16.1329   H         1 RES1   0.0000
    11 C11     -1.6101  -5.7761 -14.6397   C.2       1 RES1   0.0000
    12 F12     -2.2837  -0.9357 -17.4105   F         1 RES1   0.0000
    13 N13     -1.2406  -7.9410 -14.1570   N.am      1 RES1   0.0000
    14 C14     -1.5106  -9.4109 -14.3092   C.3       1 RES1   0.0000
    15 H15     -1.2172  -9.7059 -15.3156   H         1 RES1   0.0000
    16 C16     -0.8997  -7.6987 -11.7768   C.3       1 RES1   0.0000
    17 H17     -1.4821  -8.4148 -11.2007   H         1 RES1   0.0000
    18 H18      0.0445  -8.1681 -12.0450   H         1 RES1   0.0000
    19 H19     -0.6847  -6.8442 -11.1386   H         1 RES1   0.0000
    20 C20     -1.7513  -5.9390 -13.3057   C.2       1 RES1   0.0000
    21 C21     -2.0254  -4.9138 -12.2663   C.ar      1 RES1   0.0000
    22 O22     -1.1751  -7.3947 -16.3880   O.2       1 RES1   0.0000
    23 C23     -1.3018  -7.0544 -15.2191   C.2       1 RES1   0.0000
    24 N24     -1.6302  -7.2794 -12.9734   N.3       1 RES1   0.0000
    25 C25     -0.9158 -11.7077 -13.4739   C.3       1 RES1   0.0000
    26 H26     -0.3410 -12.2499 -12.7244   H         1 RES1   0.0000
    27 H27     -0.6031 -12.0220 -14.4685   H         1 RES1   0.0000
    28 C28     -3.2233 -11.2475 -14.2586   C.3       1 RES1   0.0000
    29 H29     -2.9786 -11.5605 -15.2726   H         1 RES1   0.0000
    30 H30     -4.2709 -11.4637 -14.0548   H         1 RES1   0.0000
    31 C31     -2.9879  -9.7502 -14.1279   C.3       1 RES1   0.0000
    32 H32     -3.5687  -9.2307 -14.8886   H         1 RES1   0.0000
    33 H33     -3.3096  -9.4241 -13.1399   H         1 RES1   0.0000
    34 C34     -0.6730 -10.2168 -13.3156   C.3       1 RES1   0.0000
    35 H35     -0.9399  -9.9192 -12.3026   H         1 RES1   0.0000
    36 H36      0.3817 -10.0084 -13.4891   H         1 RES1   0.0000
    37 N37     -2.3706 -12.0022 -13.2938   N.4       1 RES1   1.0000
    38 H38     -2.6412 -11.7468 -12.3494   H         1 RES1   0.0000
    39 H39     -2.5223 -12.9963 -13.4320   H         1 RES1   0.0000
    40 N40     -3.1488  -5.0691 -11.5482   N.ar      1 RES1   0.0000
    41 C41     -1.5487  -2.9443 -11.0618   C.ar      1 RES1   0.0000
    42 H42     -0.8989  -2.0972 -10.8681   H         1 RES1   0.0000
    43 N43     -4.5543  -4.2769  -9.9188   N.pl3     1 RES1   0.0000
    44 H44     -5.1685  -5.0566 -10.1537   H         1 RES1   0.0000
    45 C45     -1.1781  -3.8376 -12.0468   C.ar      1 RES1   0.0000
    46 H46     -0.2689  -3.7025 -12.6231   H         1 RES1   0.0000
    47 C47     -3.4203  -4.1344 -10.6232   C.ar      1 RES1   0.0000
    48 N48     -2.6660  -3.0643 -10.3331   N.ar      1 RES1   0.0000
    49 C49     -4.9950  -3.3481  -8.8782   C.3       1 RES1   0.0000
    50 H50     -4.6627  -2.3336  -9.1475   H         1 RES1   0.0000
    51 C51     -4.4285  -3.6958  -7.5156   C.ar      1 RES1   0.0000
    52 C52     -6.5189  -3.3695  -8.8546   C.3       1 RES1   0.0000
    53 H53     -6.9036  -2.6687  -8.1166   H         1 RES1   0.0000
    54 H54     -6.9254  -3.0957  -9.8260   H         1 RES1   0.0000
    55 H55     -6.8853  -4.3623  -8.6018   H         1 RES1   0.0000
    56 C56     -3.3873  -4.3496  -5.0159   C.ar      1 RES1   0.0000
    57 H57     -2.9810  -4.6039  -4.0425   H         1 RES1   0.0000
    58 C58     -4.1432  -5.0134  -7.1877   C.ar      1 RES1   0.0000
    59 H59     -4.3284  -5.7984  -7.9134   H         1 RES1   0.0000
    60 C60     -4.1855  -2.7107  -6.5683   C.ar      1 RES1   0.0000
    61 H61     -4.4024  -1.6735  -6.8013   H         1 RES1   0.0000
    62 C62     -3.6676  -3.0371  -5.3263   C.ar      1 RES1   0.0000
    63 H63     -3.4821  -2.2565  -4.5961   H         1 RES1   0.0000
    64 C64     -3.6247  -5.3378  -5.9456   C.ar      1 RES1   0.0000
    65 H65     -3.4050  -6.3725  -5.7045   H         1 RES1   0.0000
@<TRIPOS>BOND
     1     1     5   ar
     2     1     6   ar
     3     1     2    1
     4     3     8   ar
     5     3     9   ar
     6     3     4    1
     7     5     9   ar
     8     5    11    1
     9     6     8   ar
    10     6     7    1
    11     8    12    1
    12     9    10    1
    13    11    20    2
    14    11    23    1
    15    13    14    1
    16    13    23   am
    17    13    24    1
    18    14    31    1
    19    14    34    1
    20    14    15    1
    21    16    24    1
    22    16    17    1
    23    16    18    1
    24    16    19    1
    25    20    21    1
    26    20    24    1
    27    21    40   ar
    28    21    45   ar
    29    22    23    2
    30    25    34    1
    31    25    37    1
    32    25    26    1
    33    25    27    1
    34    28    31    1
    35    28    37    1
    36    28    29    1
    37    28    30    1
    38    31    32    1
    39    31    33    1
    40    34    35    1
    41    34    36    1
    42    37    38    1
    43    37    39    1
    44    40    47   ar
    45    41    45   ar
    46    41    48   ar
    47    41    42    1
    48    43    47    1
    49    43    49    1
    50    43    44    1
    51    45    46    1
    52    47    48   ar
    53    49    51    1
    54    49    52    1
    55    49    50    1
    56    51    58   ar
    57    51    60   ar
    58    52    53    1
    59    52    54    1
    60    52    55    1
    61    56    62   ar
    62    56    64   ar
    63    56    57    1
    64    58    64   ar
    65    58    59    1
    66    60    62   ar
    67    60    61    1
    68    62    63    1
    69    64    65    1
@<TRIPOS>SUBSTRUCTURE
     1 RES1        1 GROUP             0 ****  ****    0  
@<TRIPOS>MOLECULE
LIGAND_00018
    65    69     1     0     0
SMALL
USER_CHARGES
****
Generated from the CSD

@<TRIPOS>ATOM
     1 C1      -3.0659  -4.4415 -16.2865   C.ar      1 RES1   0.0000
     2 H2      -3.6943  -5.3098 -16.4525   H         1 RES1   0.0000
     3 C3      -1.5034  -2.2042 -15.8564   C.ar      1 RES1   0.0000
     4 H4      -0.8990  -1.3192 -15.6872   H         1 RES1   0.0000
     5 C5      -2.0024  -4.5271 -15.3929   C.ar      1 RES1   0.0000
     6 C6      -3.3430  -3.2681 -16.9653   C.ar      1 RES1   0.0000
     7 H7      -4.1684  -3.2138 -17.6673   H         1 RES1   0.0000
     8 C8      -2.5536  -2.1780 -16.7291   C.ar      1 RES1   0.0000
     9 C9      -1.2287  -3.3870 -15.1946   C.ar      1 RES1   0.0000
    10 H10     -0.3885  -3.4213 -14.5105   H         1 RES1   0.0000
    11 C11     -1.6923  -5.7902 -14.6475   C.2       1 RES1   0.0000
    12 F12     -2.8237  -1.0189 -17.3890   F         1 RES1   0.0000
    13 N13     -1.1764  -7.9233 -14.1576   N.am      1 RES1   0.0000
    14 C14     -1.3715  -9.4081 -14.2753   C.3       1 RES1   0.0000
    15 H15     -1.1171  -9.7027 -15.2924   H         1 RES1   0.0000
    16 C16     -0.7206  -7.6241 -11.8031   C.3       1 RES1   0.0000
    17 H17     -1.2298  -8.3617 -11.1863   H         1 RES1   0.0000
    18 H18      0.2324  -8.0451 -12.1169   H         1 RES1   0.0000
    19 H19     -0.5192  -6.7488 -11.1892   H         1 RES1   0.0000
    20 C20     -1.7513  -5.9390 -13.3057   C.2       1 RES1   0.0000
    21 C21     -2.0254  -4.9138 -12.2663   C.ar      1 RES1   0.0000
    22 O22     -1.2631  -7.4104 -16.3958   O.2       1 RES1   0.0000
    23 C23     -1.3448  -7.0587 -15.2262   C.2       1 RES1   0.0000
    24 N24     -1.5374  -7.2652 -12.9630   N.3       1 RES1   0.0000
    25 C25     -0.6047 -11.6548 -13.4438   C.3       1 RES1   0.0000
    26 H26      0.0392 -12.1522 -12.7200   H         1 RES1   0.0000
    27 H27     -0.3293 -11.9674 -14.4499   H         1 RES1   0.0000
    28 C28     -2.9735 -11.3353 -14.1064   C.3       1 RES1   0.0000
    29 H29     -2.7670 -11.6508 -15.1280   H         1 RES1   0.0000
    30 H30     -3.9948 -11.6057 -13.8424   H         1 RES1   0.0000
    31 C31     -2.8156  -9.8255 -14.0085   C.3       1 RES1   0.0000
    32 H32     -3.4649  -9.3511 -14.7429   H         1 RES1   0.0000
    33 H33     -3.1010  -9.5016 -13.0087   H         1 RES1   0.0000
    34 C34     -0.4375 -10.1504 -13.3187   C.3       1 RES1   0.0000
    35 H35     -0.6654  -9.8515 -12.2966   H         1 RES1   0.0000
    36 H36      0.5929  -9.8870 -13.5528   H         1 RES1   0.0000
    37 N37     -2.0289 -12.0261 -13.1800   N.4       1 RES1   1.0000
    38 H38     -2.2618 -11.7707 -12.2257   H         1 RES1   0.0000
    39 H39     -2.1319 -13.0292 -13.2966   H         1 RES1   0.0000
    40 N40     -3.1488  -5.0691 -11.5482   N.ar      1 RES1   0.0000
    41 C41     -1.5487  -2.9443 -11.0618   C.ar      1 RES1   0.0000
    42 H42     -0.8989  -2.0972 -10.8681   H         1 RES1   0.0000
    43 N43     -4.5543  -4.2769  -9.9188   N.pl3     1 RES1   0.0000
    44 H44     -5.1685  -5.0566 -10.1537   H         1 RES1   0.0000
    45 C45     -1.1781  -3.8376 -12.0468   C.ar      1 RES1   0.0000
    46 H46     -0.2689  -3.7025 -12.6231   H         1 RES1   0.0000
    47 C47     -3.4203  -4.1344 -10.6232   C.ar      1 RES1   0.0000
    48 N48     -2.6660  -3.0643 -10.3331   N.ar      1 RES1   0.0000
    49 C49     -4.9950  -3.3482  -8.8781   C.3       1 RES1   0.0000
    50 H50     -4.6624  -2.3337  -9.1472   H         1 RES1   0.0000
    51 C51     -4.4287  -3.6962  -7.5155   C.ar      1 RES1   0.0000
    52 C52     -6.5189  -3.3693  -8.8547   C.3       1 RES1   0.0000
    53 H53     -6.9035  -2.6685  -8.1167   H         1 RES1   0.0000
    54 H54     -6.9252  -3.0952  -9.8261   H         1 RES1   0.0000
    55 H55     -6.8855  -4.3620  -8.6021   H         1 RES1   0.0000
    56 C56     -3.3879  -4.3506  -5.0157   C.ar      1 RES1   0.0000
    57 H57     -2.9818  -4.6052  -4.0424   H         1 RES1   0.0000
    58 C58     -4.1437  -5.0139  -7.1877   C.ar      1 RES1   0.0000
    59 H59     -4.3289  -5.7987  -7.9137   H         1 RES1   0.0000
    60 C60     -4.1856  -2.7113  -6.5680   C.ar      1 RES1   0.0000
    61 H61     -4.4023  -1.6740  -6.8009   H         1 RES1   0.0000
    62 C62     -3.6679  -3.0380  -5.3260   C.ar      1 RES1   0.0000
    63 H63     -3.4823  -2.2575  -4.5956   H         1 RES1   0.0000
    64 C64     -3.6254  -5.3387  -5.9457   C.ar      1 RES1   0.0000
    65 H65     -3.4059  -6.3734  -5.7047   H         1 RES1   0.0000
@<TRIPOS>BOND
     1     1     5   ar
     2     1     6   ar
     3     1     2    1
     4     3     8   ar
     5     3     9   ar
     6     3     4    1
     7     5     9   ar
     8     5    11    1
     9     6     8   ar
    10     6     7    1
    11     8    12    1
    12     9    10    1
    13    11    20    2
    14    11    23    1
    15    13    14    1
    16    13    23   am
    17    13    24    1
    18    14    31    1
    19    14    34    1
    20    14    15    1
    21    16    24    1
    22    16    17    1
    23    16    18    1
    24    16    19    1
    25    20    21    1
    26    20    24    1
    27    21    40   ar
    28    21    45   ar
    29    22    23    2
    30    25    34    1
    31    25    37    1
    32    25    26    1
    33    25    27    1
    34    28    31    1
    35    28    37    1
    36    28    29    1
    37    28    30    1
    38    31    32    1
    39    31    33    1
    40    34    35    1
    41    34    36    1
    42    37    38    1
    43    37    39    1
    44    40    47   ar
    45    41    45   ar
    46    41    48   ar
    47    41    42    1
    48    43    47    1
    49    43    49    1
    50    43    44    1
    51    45    46    1
    52    47    48   ar
    53    49    51    1
    54    49    52    1
    55    49    50    1
    56    51    58   ar
    57    51    60   ar
    58    52    53    1
    59    52    54    1
    60    52    55    1
    61    56    62   ar
    62    56    64   ar
    63    56    57    1
    64    58    64   ar
    65    58    59    1
    66    60    62   ar
    67    60    61    1
    68    62    63    1
    69    64    65    1
@<TRIPOS>SUBSTRUCTURE
     1 RES1        1 GROUP             0 ****  ****    0  
@<TRIPOS>MOLECULE
LIGAND_00019
    65    69     1     0     0
SMALL
USER_CHARGES
****
Generated from the CSD

@<TRIPOS>ATOM
     1 C1      -0.1734  -3.7512 -12.4311   C.ar      1 RES1   0.0000
     2 H2       0.8163  -4.1080 -12.6950   H         1 RES1   0.0000
     3 C3      -2.6840  -2.8012 -11.7784   C.ar      1 RES1   0.0000
     4 H4      -3.6669  -2.4178 -11.5253   H         1 RES1   0.0000
     5 C5      -1.2881  -4.5128 -12.7691   C.ar      1 RES1   0.0000
     6 C6      -0.3010  -2.5429 -11.7691   C.ar      1 RES1   0.0000
     7 H7       0.5745  -1.9608 -11.5013   H         1 RES1   0.0000
     8 C8      -1.5563  -2.0986 -11.4624   C.ar      1 RES1   0.0000
     9 C9      -2.5420  -4.0138 -12.4278   C.ar      1 RES1   0.0000
    10 H10     -3.4308  -4.5851 -12.6702   H         1 RES1   0.0000
    11 C11     -1.1659  -5.8217 -13.4895   C.2       1 RES1   0.0000
    12 F12     -1.6896  -0.9084 -10.8162   F         1 RES1   0.0000
    13 N13     -1.2406  -7.9410 -14.1570   N.am      1 RES1   0.0000
    14 C14     -1.5106  -9.4109 -14.3092   C.3       1 RES1   0.0000
    15 H15     -1.1035  -9.7318 -15.2670   H         1 RES1   0.0000
    16 C16     -0.3252  -7.6743 -16.4955   C.3       1 RES1   0.0000
    17 H17      0.2862  -6.9628 -17.0468   H         1 RES1   0.0000
    18 H18      0.2106  -8.6203 -16.4541   H         1 RES1   0.0000
    19 H19     -1.2478  -7.8308 -17.0505   H         1 RES1   0.0000
    20 C20     -0.5870  -5.9122 -14.7311   C.2       1 RES1   0.0000
    21 C21      0.0604  -4.8376 -15.5265   C.ar      1 RES1   0.0000
    22 O22     -2.1510  -7.5590 -12.1278   O.2       1 RES1   0.0000
    23 C23     -1.5821  -7.1365 -13.1259   C.2       1 RES1   0.0000
    24 N24     -0.6101  -7.1788 -15.1485   N.pl3     1 RES1   0.0000
    25 C25     -1.0509 -11.6946 -13.3605   C.3       1 RES1   0.0000
    26 H26     -0.5769 -12.2260 -12.5365   H         1 RES1   0.0000
    27 H27     -0.6263 -12.0348 -14.3038   H         1 RES1   0.0000
    28 C28     -3.2420 -11.2269 -14.4245   C.3       1 RES1   0.0000
    29 H29     -2.8826 -11.5654 -15.3952   H         1 RES1   0.0000
    30 H30     -4.3093 -11.4269 -14.3427   H         1 RES1   0.0000
    31 C31     -3.0035  -9.7297 -14.2983   C.3       1 RES1   0.0000
    32 H32     -3.4824  -9.2211 -15.1337   H         1 RES1   0.0000
    33 H33     -3.4360  -9.3778 -13.3629   H         1 RES1   0.0000
    34 C34     -0.8083 -10.2033 -13.2059   C.3       1 RES1   0.0000
    35 H35     -1.1899  -9.8799 -12.2386   H         1 RES1   0.0000
    36 H36      0.2623 -10.0106 -13.2567   H         1 RES1   0.0000
    37 N37     -2.5207 -11.9690 -13.3491   N.4       1 RES1   1.0000
    38 H38     -2.8983 -11.6892 -12.4494   H         1 RES1   0.0000
    39 H39     -2.6684 -12.9641 -13.4833   H         1 RES1   0.0000
    40 N40      1.3518  -5.0181 -15.8447   N.ar      1 RES1   0.0000
    41 C41      0.0944  -2.7605 -16.6407   C.ar      1 RES1   0.0000
    42 H42     -0.4181  -1.8597 -16.9618   H         1 RES1   0.0000
    43 N43      3.2523  -4.2108 -16.8421   N.pl3     1 RES1   0.0000
    44 H44      3.7047  -3.5050 -17.4229   H         1 RES1   0.0000
    45 C45     -0.6202  -3.6935 -15.9166   C.ar      1 RES1   0.0000
    46 H46     -1.6635  -3.5377 -15.6629   H         1 RES1   0.0000
    47 C47      1.9548  -4.0414 -16.5414   C.ar      1 RES1   0.0000
    48 N48      1.3851  -2.9047 -16.9677   N.ar      1 RES1   0.0000
    49 C49      4.0410  -5.3758 -16.4417   C.3       1 RES1   0.0000
    50 H50      3.5896  -6.2766 -16.8856   H         1 RES1   0.0000
    51 C51      4.0892  -5.5516 -14.9366   C.ar      1 RES1   0.0000
    52 C52      5.4433  -5.2034 -17.0137   C.3       1 RES1   0.0000
    53 H53      6.0670  -6.0616 -16.7724   H         1 RES1   0.0000
    54 H54      5.4104  -5.1023 -18.0965   H         1 RES1   0.0000
    55 H55      5.9184  -4.3142 -16.6048   H         1 RES1   0.0000
    56 C56      4.1763  -5.8592 -12.1693   C.ar      1 RES1   0.0000
    57 H57      4.2094  -5.9793 -11.0915   H         1 RES1   0.0000
    58 C58      4.0118  -4.4499 -14.0969   C.ar      1 RES1   0.0000
    59 H59      3.9168  -3.4567 -14.5233   H         1 RES1   0.0000
    60 C60      4.2135  -6.8110 -14.3662   C.ar      1 RES1   0.0000
    61 H61      4.2775  -7.6872 -15.0027   H         1 RES1   0.0000
    62 C62      4.2563  -6.9624 -12.9905   C.ar      1 RES1   0.0000
    63 H63      4.3530  -7.9529 -12.5586   H         1 RES1   0.0000
    64 C64      4.0540  -4.6032 -12.7215   C.ar      1 RES1   0.0000
    65 H65      3.9906  -3.7323 -12.0778   H         1 RES1   0.0000
@<TRIPOS>BOND
     1     1     5   ar
     2     1     6   ar
     3     1     2    1
     4     3     8   ar
     5     3     9   ar
     6     3     4    1
     7     5     9   ar
     8     5    11    1
     9     6     8   ar
    10     6     7    1
    11     8    12    1
    12     9    10    1
    13    11    20    2
    14    11    23    1
    15    13    14    1
    16    13    23   am
    17    13    24    1
    18    14    31    1
    19    14    34    1
    20    14    15    1
    21    16    24    1
    22    16    17    1
    23    16    18    1
    24    16    19    1
    25    20    21    1
    26    20    24    1
    27    21    40   ar
    28    21    45   ar
    29    22    23    2
    30    25    34    1
    31    25    37    1
    32    25    26    1
    33    25    27    1
    34    28    31    1
    35    28    37    1
    36    28    29    1
    37    28    30    1
    38    31    32    1
    39    31    33    1
    40    34    35    1
    41    34    36    1
    42    37    38    1
    43    37    39    1
    44    40    47   ar
    45    41    45   ar
    46    41    48   ar
    47    41    42    1
    48    43    47    1
    49    43    49    1
    50    43    44    1
    51    45    46    1
    52    47    48   ar
    53    49    51    1
    54    49    52    1
    55    49    50    1
    56    51    58   ar
    57    51    60   ar
    58    52    53    1
    59    52    54    1
    60    52    55    1
    61    56    62   ar
    62    56    64   ar
    63    56    57    1
    64    58    64   ar
    65    58    59    1
    66    60    62   ar
    67    60    61    1
    68    62    63    1
    69    64    65    1
@<TRIPOS>SUBSTRUCTURE
     1 RES1        1 GROUP             0 ****  ****    0  
@<TRIPOS>MOLECULE
LIGAND_00020
    65    69     1     0     0
SMALL
USER_CHARGES
****
Generated from the CSD

@<TRIPOS>ATOM
     1 C1      -0.7255  -4.2873 -11.5330   C.ar      1 RES1   0.0000
     2 H2      -0.1578  -5.0814 -11.0603   H         1 RES1   0.0000
     3 C3      -2.1360  -2.2355 -12.7299   C.ar      1 RES1   0.0000
     4 H4      -2.6820  -1.4224 -13.1968   H         1 RES1   0.0000
     5 C5      -1.3059  -4.5089 -12.7783   C.ar      1 RES1   0.0000
     6 C6      -0.8526  -3.0709 -10.8858   C.ar      1 RES1   0.0000
     7 H7      -0.4048  -2.9108  -9.9108   H         1 RES1   0.0000
     8 C8      -1.5541  -2.0750 -11.5048   C.ar      1 RES1   0.0000
     9 C9      -2.0130  -3.4603 -13.3599   C.ar      1 RES1   0.0000
    10 H10     -2.4834  -3.6016 -14.3263   H         1 RES1   0.0000
    11 C11     -1.1736  -5.8198 -13.4933   C.2       1 RES1   0.0000
    12 F12     -1.6786  -0.8742 -10.8766   F         1 RES1   0.0000
    13 N13     -1.2351  -7.9418 -14.1536   N.am      1 RES1   0.0000
    14 C14     -1.4977  -9.4134 -14.3021   C.3       1 RES1   0.0000
    15 H15     -1.0835  -9.7359 -15.2563   H         1 RES1   0.0000
    16 C16     -0.3070  -7.6794 -16.4876   C.3       1 RES1   0.0000
    17 H17      0.1356  -6.8972 -17.1009   H         1 RES1   0.0000
    18 H18      0.3914  -8.5126 -16.4457   H         1 RES1   0.0000
    19 H19     -1.2154  -8.0224 -16.9783   H         1 RES1   0.0000
    20 C20     -0.5870  -5.9122 -14.7311   C.2       1 RES1   0.0000
    21 C21      0.0604  -4.8376 -15.5265   C.ar      1 RES1   0.0000
    22 O22     -2.1592  -7.5566 -12.1312   O.2       1 RES1   0.0000
    23 C23     -1.5863  -7.1351 -13.1274   C.2       1 RES1   0.0000
    24 N24     -0.6021  -7.1803 -15.1440   N.pl3     1 RES1   0.0000
    25 C25     -1.0337 -11.6917 -13.3424   C.3       1 RES1   0.0000
    26 H26     -0.5623 -12.2180 -12.5137   H         1 RES1   0.0000
    27 H27     -0.6020 -12.0333 -14.2820   H         1 RES1   0.0000
    28 C28     -3.2204 -11.2374 -14.4213   C.3       1 RES1   0.0000
    29 H29     -2.8538 -11.5779 -15.3885   H         1 RES1   0.0000
    30 H30     -4.2874 -11.4418 -14.3451   H         1 RES1   0.0000
    31 C31     -2.9893  -9.7388 -14.2990   C.3       1 RES1   0.0000
    32 H32     -3.4653  -9.2353 -15.1391   H         1 RES1   0.0000
    33 H33     -3.4289  -9.3854 -13.3675   H         1 RES1   0.0000
    34 C34     -0.7986 -10.1988 -13.1918   C.3       1 RES1   0.0000
    35 H35     -1.1874  -9.8736 -12.2279   H         1 RES1   0.0000
    36 H36      0.2714 -10.0015 -13.2369   H         1 RES1   0.0000
    37 N37     -2.5023 -11.9724 -13.3388   N.4       1 RES1   1.0000
    38 H38     -2.8865 -11.6912 -12.4425   H         1 RES1   0.0000
    39 H39     -2.6448 -12.9687 -13.4704   H         1 RES1   0.0000
    40 N40     -0.4745  -4.5722 -16.7286   N.ar      1 RES1   0.0000
    41 C41      1.6905  -3.1773 -15.9048   C.ar      1 RES1   0.0000
    42 H42      2.5557  -2.6175 -15.5653   H         1 RES1   0.0000
    43 N43     -0.4029  -3.3687 -18.6792   N.pl3     1 RES1   0.0000
    44 H44      0.0000  -2.6063 -19.2240   H         1 RES1   0.0000
    45 C45      1.1705  -4.1438 -15.0676   C.ar      1 RES1   0.0000
    46 H46      1.6110  -4.3522 -14.0982   H         1 RES1   0.0000
    47 C47      0.1180  -3.6205 -17.4677   C.ar      1 RES1   0.0000
    48 N48      1.1874  -2.8931 -17.1131   N.ar      1 RES1   0.0000
    49 C49     -1.5526  -4.0777 -19.2405   C.3       1 RES1   0.0000
    50 H50     -2.4207  -3.9184 -18.5822   H         1 RES1   0.0000
    51 C51     -1.3080  -5.5687 -19.3644   C.ar      1 RES1   0.0000
    52 C52     -1.8560  -3.4620 -20.6014   C.3       1 RES1   0.0000
    53 H53     -2.7272  -3.9324 -21.0525   H         1 RES1   0.0000
    54 H54     -2.0561  -2.3966 -20.5089   H         1 RES1   0.0000
    55 H55     -1.0136  -3.5908 -21.2778   H         1 RES1   0.0000
    56 C56     -0.8432  -8.3058 -19.5938   C.ar      1 RES1   0.0000
    57 H57     -0.6622  -9.3719 -19.6824   H         1 RES1   0.0000
    58 C58     -0.0259  -6.0563 -19.5731   C.ar      1 RES1   0.0000
    59 H59      0.8054  -5.3630 -19.6483   H         1 RES1   0.0000
    60 C60     -2.3545  -6.4762 -19.2749   C.ar      1 RES1   0.0000
    61 H61     -3.3660  -6.1184 -19.1137   H         1 RES1   0.0000
    62 C62     -2.1219  -7.8365 -19.3888   C.ar      1 RES1   0.0000
    63 H63     -2.9496  -8.5341 -19.3162   H         1 RES1   0.0000
    64 C64      0.2049  -7.4167 -19.6860   C.ar      1 RES1   0.0000
    65 H65      1.2134  -7.7829 -19.8473   H         1 RES1   0.0000
@<TRIPOS>BOND
     1     1     5   ar
     2     1     6   ar
     3     1     2    1
     4     3     8   ar
     5     3     9   ar
     6     3     4    1
     7     5     9   ar
     8     5    11    1
     9     6     8   ar
    10     6     7    1
    11     8    12    1
    12     9    10    1
    13    11    20    2
    14    11    23    1
    15    13    14    1
    16    13    23   am
    17    13    24    1
    18    14    31    1
    19    14    34    1
    20    14    15    1
    21    16    24    1
    22    16    17    1
    23    16    18    1
    24    16    19    1
    25    20    21    1
    26    20    24    1
    27    21    40   ar
    28    21    45   ar
    29    22    23    2
    30    25    34    1
    31    25    37    1
    32    25    26    1
    33    25    27    1
    34    28    31    1
    35    28    37    1
    36    28    29    1
    37    28    30    1
    38    31    32    1
    39    31    33    1
    40    34    35    1
    41    34    36    1
    42    37    38    1
    43    37    39    1
    44    40    47   ar
    45    41    45   ar
    46    41    48   ar
    47    41    42    1
    48    43    47    1
    49    43    49    1
    50    43    44    1
    51    45    46    1
    52    47    48   ar
    53    49    51    1
    54    49    52    1
    55    49    50    1
    56    51    58   ar
    57    51    60   ar
    58    52    53    1
    59    52    54    1
    60    52    55    1
    61    56    62   ar
    62    56    64   ar
    63    56    57    1
    64    58    64   ar
    65    58    59    1
    66    60    62   ar
    67    60    61    1
    68    62    63    1
    69    64    65    1
@<TRIPOS>SUBSTRUCTURE
     1 RES1        1 GROUP             0 ****  ****    0  
@<TRIPOS>MOLECULE
LIGAND_00021
    65    69     1     0     0
SMALL
USER_CHARGES
****
Generated from the CSD

@<TRIPOS>ATOM
     1 C1      -0.1734  -3.7512 -12.4311   C.ar      1 RES1   0.0000
     2 H2       0.8163  -4.1080 -12.6950   H         1 RES1   0.0000
     3 C3      -2.6840  -2.8012 -11.7784   C.ar      1 RES1   0.0000
     4 H4      -3.6669  -2.4178 -11.5253   H         1 RES1   0.0000
     5 C5      -1.2881  -4.5128 -12.7691   C.ar      1 RES1   0.0000
     6 C6      -0.3010  -2.5429 -11.7691   C.ar      1 RES1   0.0000
     7 H7       0.5745  -1.9608 -11.5013   H         1 RES1   0.0000
     8 C8      -1.5563  -2.0986 -11.4624   C.ar      1 RES1   0.0000
     9 C9      -2.5420  -4.0138 -12.4278   C.ar      1 RES1   0.0000
    10 H10     -3.4308  -4.5851 -12.6702   H         1 RES1   0.0000
    11 C11     -1.1659  -5.8217 -13.4895   C.2       1 RES1   0.0000
    12 F12     -1.6896  -0.9084 -10.8162   F         1 RES1   0.0000
    13 N13     -1.2406  -7.9410 -14.1570   N.am      1 RES1   0.0000
    14 C14     -1.5106  -9.4109 -14.3092   C.3       1 RES1   0.0000
    15 H15     -1.1036  -9.7318 -15.2670   H         1 RES1   0.0000
    16 C16     -0.3252  -7.6743 -16.4955   C.3       1 RES1   0.0000
    17 H17      0.2645  -6.9514 -17.0556   H         1 RES1   0.0000
    18 H18      0.2331  -8.6072 -16.4541   H         1 RES1   0.0000
    19 H19     -1.2486  -7.8553 -17.0417   H         1 RES1   0.0000
    20 C20     -0.5870  -5.9122 -14.7311   C.2       1 RES1   0.0000
    21 C21      0.0604  -4.8376 -15.5265   C.ar      1 RES1   0.0000
    22 O22     -2.1510  -7.5590 -12.1278   O.2       1 RES1   0.0000
    23 C23     -1.5821  -7.1365 -13.1259   C.2       1 RES1   0.0000
    24 N24     -0.6101  -7.1788 -15.1485   N.pl3     1 RES1   0.0000
    25 C25     -1.0509 -11.6946 -13.3605   C.3       1 RES1   0.0000
    26 H26     -0.5769 -12.2260 -12.5365   H         1 RES1   0.0000
    27 H27     -0.6263 -12.0348 -14.3038   H         1 RES1   0.0000
    28 C28     -3.2420 -11.2269 -14.4245   C.3       1 RES1   0.0000
    29 H29     -2.8827 -11.5654 -15.3952   H         1 RES1   0.0000
    30 H30     -4.3093 -11.4269 -14.3427   H         1 RES1   0.0000
    31 C31     -3.0035  -9.7297 -14.2983   C.3       1 RES1   0.0000
    32 H32     -3.4824  -9.2211 -15.1337   H         1 RES1   0.0000
    33 H33     -3.4360  -9.3778 -13.3629   H         1 RES1   0.0000
    34 C34     -0.8083 -10.2033 -13.2059   C.3       1 RES1   0.0000
    35 H35     -1.1898  -9.8799 -12.2386   H         1 RES1   0.0000
    36 H36      0.2623 -10.0106 -13.2567   H         1 RES1   0.0000
    37 N37     -2.5207 -11.9690 -13.3491   N.4       1 RES1   1.0000
    38 H38     -2.8983 -11.6892 -12.4494   H         1 RES1   0.0000
    39 H39     -2.6683 -12.9641 -13.4833   H         1 RES1   0.0000
    40 N40      1.3518  -5.0181 -15.8447   N.ar      1 RES1   0.0000
    41 C41      0.0944  -2.7605 -16.6407   C.ar      1 RES1   0.0000
    42 H42     -0.4181  -1.8597 -16.9618   H         1 RES1   0.0000
    43 N43      3.2523  -4.2108 -16.8421   N.pl3     1 RES1   0.0000
    44 H44      3.7246  -5.0366 -16.4741   H         1 RES1   0.0000
    45 C45     -0.6202  -3.6935 -15.9166   C.ar      1 RES1   0.0000
    46 H46     -1.6635  -3.5377 -15.6629   H         1 RES1   0.0000
    47 C47      1.9548  -4.0414 -16.5414   C.ar      1 RES1   0.0000
    48 N48      1.3851  -2.9047 -16.9677   N.ar      1 RES1   0.0000
    49 C49      4.0471  -3.2539 -17.6115   C.3       1 RES1   0.0000
    50 H50      4.0643  -2.2948 -17.0709   H         1 RES1   0.0000
    51 C51      3.4822  -3.0163 -18.9982   C.ar      1 RES1   0.0000
    52 C52      5.4708  -3.7925 -17.6897   C.3       1 RES1   0.0000
    53 H53      6.1165  -3.1008 -18.2266   H         1 RES1   0.0000
    54 H54      5.8848  -3.9394 -16.6944   H         1 RES1   0.0000
    55 H55      5.4920  -4.7480 -18.2097   H         1 RES1   0.0000
    56 C56      2.4385  -2.5942 -21.5463   C.ar      1 RES1   0.0000
    57 H57      2.0315  -2.4294 -22.5384   H         1 RES1   0.0000
    58 C58      2.7860  -4.0202 -19.6557   C.ar      1 RES1   0.0000
    59 H59      2.6469  -4.9813 -19.1717   H         1 RES1   0.0000
    60 C60      3.6490  -1.7970 -19.6404   C.ar      1 RES1   0.0000
    61 H61      4.1914  -0.9974 -19.1467   H         1 RES1   0.0000
    62 C62      3.1293  -1.5885 -20.9068   C.ar      1 RES1   0.0000
    63 H63      3.2669  -0.6301 -21.3963   H         1 RES1   0.0000
    64 C64      2.2665  -3.8098 -20.9217   C.ar      1 RES1   0.0000
    65 H65      1.7228  -4.6040 -21.4223   H         1 RES1   0.0000
@<TRIPOS>BOND
     1     1     5   ar
     2     1     6   ar
     3     1     2    1
     4     3     8   ar
     5     3     9   ar
     6     3     4    1
     7     5     9   ar
     8     5    11    1
     9     6     8   ar
    10     6     7    1
    11     8    12    1
    12     9    10    1
    13    11    20    2
    14    11    23    1
    15    13    14    1
    16    13    23   am
    17    13    24    1
    18    14    31    1
    19    14    34    1
    20    14    15    1
    21    16    24    1
    22    16    17    1
    23    16    18    1
    24    16    19    1
    25    20    21    1
    26    20    24    1
    27    21    40   ar
    28    21    45   ar
    29    22    23    2
    30    25    34    1
    31    25    37    1
    32    25    26    1
    33    25    27    1
    34    28    31    1
    35    28    37    1
    36    28    29    1
    37    28    30    1
    38    31    32    1
    39    31    33    1
    40    34    35    1
    41    34    36    1
    42    37    38    1
    43    37    39    1
    44    40    47   ar
    45    41    45   ar
    46    41    48   ar
    47    41    42    1
    48    43    47    1
    49    43    49    1
    50    43    44    1
    51    45    46    1
    52    47    48   ar
    53    49    51    1
    54    49    52    1
    55    49    50    1
    56    51    58   ar
    57    51    60   ar
    58    52    53    1
    59    52    54    1
    60    52    55    1
    61    56    62   ar
    62    56    64   ar
    63    56    57    1
    64    58    64   ar
    65    58    59    1
    66    60    62   ar
    67    60    61    1
    68    62    63    1
    69    64    65    1
@<TRIPOS>SUBSTRUCTURE
     1 RES1        1 GROUP             0 ****  ****    0  
@<TRIPOS>MOLECULE
LIGAND_00022
    65    69     1     0     0
SMALL
USER_CHARGES
****
Generated from the CSD

@<TRIPOS>ATOM
     1 C1      -0.6994  -4.2982 -11.5265   C.ar      1 RES1   0.0000
     2 H2      -0.1323  -5.0965 -11.0599   H         1 RES1   0.0000
     3 C3      -2.1079  -2.2360 -12.7076   C.ar      1 RES1   0.0000
     4 H4      -2.6530  -1.4188 -13.1683   H         1 RES1   0.0000
     5 C5      -1.2881  -4.5128 -12.7691   C.ar      1 RES1   0.0000
     6 C6      -0.8173  -3.0836 -10.8742   C.ar      1 RES1   0.0000
     7 H7      -0.3629  -2.9290  -9.9013   H         1 RES1   0.0000
     8 C8      -1.5180  -2.0824 -11.4854   C.ar      1 RES1   0.0000
     9 C9      -1.9941  -3.4590 -13.3427   C.ar      1 RES1   0.0000
    10 H10     -2.4708  -3.5947 -14.3068   H         1 RES1   0.0000
    11 C11     -1.1659  -5.8217 -13.4895   C.2       1 RES1   0.0000
    12 F12     -1.6334  -0.8834 -10.8522   F         1 RES1   0.0000
    13 N13     -1.2406  -7.9410 -14.1570   N.am      1 RES1   0.0000
    14 C14     -1.5106  -9.4109 -14.3092   C.3       1 RES1   0.0000
    15 H15     -1.1035  -9.7318 -15.2670   H         1 RES1   0.0000
    16 C16     -0.3252  -7.6743 -16.4955   C.3       1 RES1   0.0000
    17 H17      0.2623  -6.9503 -17.0564   H         1 RES1   0.0000
    18 H18      0.2353  -8.6059 -16.4541   H         1 RES1   0.0000
    19 H19     -1.2486  -7.8577 -17.0408   H         1 RES1   0.0000
    20 C20     -0.5870  -5.9122 -14.7311   C.2       1 RES1   0.0000
    21 C21      0.0604  -4.8376 -15.5265   C.ar      1 RES1   0.0000
    22 O22     -2.1510  -7.5590 -12.1278   O.2       1 RES1   0.0000
    23 C23     -1.5821  -7.1365 -13.1259   C.2       1 RES1   0.0000
    24 N24     -0.6101  -7.1788 -15.1485   N.pl3     1 RES1   0.0000
    25 C25     -1.0509 -11.6946 -13.3605   C.3       1 RES1   0.0000
    26 H26     -0.5769 -12.2260 -12.5365   H         1 RES1   0.0000
    27 H27     -0.6263 -12.0348 -14.3038   H         1 RES1   0.0000
    28 C28     -3.2420 -11.2269 -14.4245   C.3       1 RES1   0.0000
    29 H29     -2.8826 -11.5654 -15.3952   H         1 RES1   0.0000
    30 H30     -4.3093 -11.4269 -14.3427   H         1 RES1   0.0000
    31 C31     -3.0035  -9.7297 -14.2983   C.3       1 RES1   0.0000
    32 H32     -3.4824  -9.2211 -15.1337   H         1 RES1   0.0000
    33 H33     -3.4360  -9.3778 -13.3629   H         1 RES1   0.0000
    34 C34     -0.8083 -10.2033 -13.2059   C.3       1 RES1   0.0000
    35 H35     -1.1898  -9.8799 -12.2386   H         1 RES1   0.0000
    36 H36      0.2623 -10.0106 -13.2567   H         1 RES1   0.0000
    37 N37     -2.5207 -11.9690 -13.3491   N.4       1 RES1   1.0000
    38 H38     -2.8983 -11.6892 -12.4494   H         1 RES1   0.0000
    39 H39     -2.6683 -12.9641 -13.4833   H         1 RES1   0.0000
    40 N40     -0.4745  -4.5722 -16.7286   N.ar      1 RES1   0.0000
    41 C41      1.6905  -3.1773 -15.9048   C.ar      1 RES1   0.0000
    42 H42      2.5557  -2.6175 -15.5653   H         1 RES1   0.0000
    43 N43     -0.4029  -3.3687 -18.6792   N.pl3     1 RES1   0.0000
    44 H44     -1.1762  -3.9524 -18.9980   H         1 RES1   0.0000
    45 C45      1.1705  -4.1438 -15.0676   C.ar      1 RES1   0.0000
    46 H46      1.6110  -4.3522 -14.0982   H         1 RES1   0.0000
    47 C47      0.1180  -3.6205 -17.4677   C.ar      1 RES1   0.0000
    48 N48      1.1874  -2.8931 -17.1131   N.ar      1 RES1   0.0000
    49 C49      0.1098  -2.3512 -19.5965   C.3       1 RES1   0.0000
    50 H50      1.1538  -2.5958 -19.8464   H         1 RES1   0.0000
    51 C51      0.0705  -0.9595 -18.9963   C.ar      1 RES1   0.0000
    52 C52     -0.7227  -2.4166 -20.8716   C.3       1 RES1   0.0000
    53 H53     -0.3620  -1.6990 -21.6055   H         1 RES1   0.0000
    54 H54     -0.6742  -3.4087 -21.3156   H         1 RES1   0.0000
    55 H55     -1.7659  -2.1903 -20.6613   H         1 RES1   0.0000
    56 C56     -0.0139   1.5935 -17.8849   C.ar      1 RES1   0.0000
    57 H57     -0.0462   2.5877 -17.4516   H         1 RES1   0.0000
    58 C58     -0.9018  -0.6218 -18.0660   C.ar      1 RES1   0.0000
    59 H59     -1.6383  -1.3609 -17.7683   H         1 RES1   0.0000
    60 C60      0.9992   0.0050 -19.3626   C.ar      1 RES1   0.0000
    61 H61      1.7678  -0.2353 -20.0896   H         1 RES1   0.0000
    62 C62      0.9562   1.2735 -18.8091   C.ar      1 RES1   0.0000
    63 H63      1.6890   2.0170 -19.1044   H         1 RES1   0.0000
    64 C64     -0.9428   0.6468 -17.5130   C.ar      1 RES1   0.0000
    65 H65     -1.7081   0.8954 -16.7853   H         1 RES1   0.0000
@<TRIPOS>BOND
     1     1     5   ar
     2     1     6   ar
     3     1     2    1
     4     3     8   ar
     5     3     9   ar
     6     3     4    1
     7     5     9   ar
     8     5    11    1
     9     6     8   ar
    10     6     7    1
    11     8    12    1
    12     9    10    1
    13    11    20    2
    14    11    23    1
    15    13    14    1
    16    13    23   am
    17    13    24    1
    18    14    31    1
    19    14    34    1
    20    14    15    1
    21    16    24    1
    22    16    17    1
    23    16    18    1
    24    16    19    1
    25    20    21    1
    26    20    24    1
    27    21    40   ar
    28    21    45   ar
    29    22    23    2
    30    25    34    1
    31    25    37    1
    32    25    26    1
    33    25    27    1
    34    28    31    1
    35    28    37    1
    36    28    29    1
    37    28    30    1
    38    31    32    1
    39    31    33    1
    40    34    35    1
    41    34    36    1
    42    37    38    1
    43    37    39    1
    44    40    47   ar
    45    41    45   ar
    46    41    48   ar
    47    41    42    1
    48    43    47    1
    49    43    49    1
    50    43    44    1
    51    45    46    1
    52    47    48   ar
    53    49    51    1
    54    49    52    1
    55    49    50    1
    56    51    58   ar
    57    51    60   ar
    58    52    53    1
    59    52    54    1
    60    52    55    1
    61    56    62   ar
    62    56    64   ar
    63    56    57    1
    64    58    64   ar
    65    58    59    1
    66    60    62   ar
    67    60    61    1
    68    62    63    1
    69    64    65    1
@<TRIPOS>SUBSTRUCTURE
     1 RES1        1 GROUP             0 ****  ****    0  
@<TRIPOS>MOLECULE
LIGAND_00023
    65    69     1     0     0
SMALL
USER_CHARGES
****
Generated from the CSD

@<TRIPOS>ATOM
     1 C1      -0.4424  -3.6875 -12.4149   C.ar      1 RES1   0.0000
     2 H2       0.5782  -4.0378 -12.5249   H         1 RES1   0.0000
     3 C3      -3.0295  -2.7544 -12.1540   C.ar      1 RES1   0.0000
     4 H4      -4.0421  -2.3777 -12.0546   H         1 RES1   0.0000
     5 C5      -1.4903  -4.4749 -12.8825   C.ar      1 RES1   0.0000
     6 C6      -0.6745  -2.4617 -11.8165   C.ar      1 RES1   0.0000
     7 H7       0.1484  -1.8593 -11.4464   H         1 RES1   0.0000
     8 C8      -1.9649  -2.0265 -11.7044   C.ar      1 RES1   0.0000
     9 C9      -2.7848  -3.9839 -12.7378   C.ar      1 RES1   0.0000
    10 H10     -3.6246  -4.5750 -13.0849   H         1 RES1   0.0000
    11 C11     -1.2543  -5.8030 -13.5363   C.2       1 RES1   0.0000
    12 F12     -2.2003  -0.8194 -11.1219   F         1 RES1   0.0000
    13 N13     -1.1784  -7.9481 -14.1158   N.am      1 RES1   0.0000
    14 C14     -1.3645  -9.4348 -14.2227   C.3       1 RES1   0.0000
    15 H15     -0.8768  -9.7716 -15.1362   H         1 RES1   0.0000
    16 C16     -0.1173  -7.7264 -16.3968   C.3       1 RES1   0.0000
    17 H17      0.4187  -6.9746 -16.9723   H         1 RES1   0.0000
    18 H18      0.5346  -8.5893 -16.2771   H         1 RES1   0.0000
    19 H19     -0.9882  -8.0361 -16.9705   H         1 RES1   0.0000
    20 C20     -0.5870  -5.9122 -14.7311   C.2       1 RES1   0.0000
    21 C21      0.0604  -4.8376 -15.5265   C.ar      1 RES1   0.0000
    22 O22     -2.2449  -7.5341 -12.1707   O.2       1 RES1   0.0000
    23 C23     -1.6296  -7.1223 -13.1454   C.2       1 RES1   0.0000
    24 N24     -0.5188  -7.1937 -15.0944   N.pl3     1 RES1   0.0000
    25 C25     -0.8601 -11.6524 -13.1481   C.3       1 RES1   0.0000
    26 H26     -0.4188 -12.1255 -12.2721   H         1 RES1   0.0000
    27 H27     -0.3549 -12.0070 -14.0454   H         1 RES1   0.0000
    28 C28     -2.9925 -11.3414 -14.3762   C.3       1 RES1   0.0000
    29 H29     -2.5505 -11.6989 -15.3051   H         1 RES1   0.0000
    30 H30     -4.0518 -11.5932 -14.3578   H         1 RES1   0.0000
    31 C31     -2.8372  -9.8301 -14.2986   C.3       1 RES1   0.0000
    32 H32     -3.2814  -9.3804 -15.1853   H         1 RES1   0.0000
    33 H33     -3.3503  -9.4645 -13.4103   H         1 RES1   0.0000
    34 C34     -0.7024 -10.1456 -13.0417   C.3       1 RES1   0.0000
    35 H35     -1.1655  -9.8045 -12.1170   H         1 RES1   0.0000
    36 H36      0.3584  -9.8996 -13.0286   H         1 RES1   0.0000
    37 N37     -2.3119 -12.0021 -13.2239   N.4       1 RES1   1.0000
    38 H38     -2.7642 -11.7071 -12.3644   H         1 RES1   0.0000
    39 H39     -2.4008 -13.0081 -13.3249   H         1 RES1   0.0000
    40 N40     -0.4745  -4.5722 -16.7286   N.ar      1 RES1   0.0000
    41 C41      1.6905  -3.1773 -15.9048   C.ar      1 RES1   0.0000
    42 H42      2.5557  -2.6175 -15.5653   H         1 RES1   0.0000
    43 N43     -0.4029  -3.3687 -18.6792   N.pl3     1 RES1   0.0000
    44 H44      0.0003  -2.6066 -19.2241   H         1 RES1   0.0000
    45 C45      1.1705  -4.1438 -15.0676   C.ar      1 RES1   0.0000
    46 H46      1.6110  -4.3522 -14.0982   H         1 RES1   0.0000
    47 C47      0.1180  -3.6205 -17.4677   C.ar      1 RES1   0.0000
    48 N48      1.1874  -2.8931 -17.1131   N.ar      1 RES1   0.0000
    49 C49     -1.5530  -4.0772 -19.2403   C.3       1 RES1   0.0000
    50 H50     -2.4223  -3.9129 -18.5848   H         1 RES1   0.0000
    51 C51     -1.3118  -5.5694 -19.3570   C.ar      1 RES1   0.0000
    52 C52     -1.8515  -3.4668 -20.6046   C.3       1 RES1   0.0000
    53 H53     -2.7227  -3.9370 -21.0558   H         1 RES1   0.0000
    54 H54     -2.0491  -2.4005 -20.5173   H         1 RES1   0.0000
    55 H55     -1.0077  -3.6007 -21.2783   H         1 RES1   0.0000
    56 C56     -0.8533  -8.3087 -19.5733   C.ar      1 RES1   0.0000
    57 H57     -0.6748  -9.3756 -19.6568   H         1 RES1   0.0000
    58 C58     -0.0310  -6.0609 -19.5646   C.ar      1 RES1   0.0000
    59 H59      0.8017  -5.3699 -19.6440   H         1 RES1   0.0000
    60 C60     -2.3603  -6.4742 -19.2620   C.ar      1 RES1   0.0000
    61 H61     -3.3708  -6.1133 -19.1015   H         1 RES1   0.0000
    62 C62     -2.1308  -7.8355 -19.3693   C.ar      1 RES1   0.0000
    63 H63     -2.9599  -8.5309 -19.2924   H         1 RES1   0.0000
    64 C64      0.1967  -7.4224 -19.6709   C.ar      1 RES1   0.0000
    65 H65      1.2041  -7.7916 -19.8314   H         1 RES1   0.0000
@<TRIPOS>BOND
     1     1     5   ar
     2     1     6   ar
     3     1     2    1
     4     3     8   ar
     5     3     9   ar
     6     3     4    1
     7     5     9   ar
     8     5    11    1
     9     6     8   ar
    10     6     7    1
    11     8    12    1
    12     9    10    1
    13    11    20    2
    14    11    23    1
    15    13    14    1
    16    13    23   am
    17    13    24    1
    18    14    31    1
    19    14    34    1
    20    14    15    1
    21    16    24    1
    22    16    17    1
    23    16    18    1
    24    16    19    1
    25    20    21    1
    26    20    24    1
    27    21    40   ar
    28    21    45   ar
    29    22    23    2
    30    25    34    1
    31    25    37    1
    32    25    26    1
    33    25    27    1
    34    28    31    1
    35    28    37    1
    36    28    29    1
    37    28    30    1
    38    31    32    1
    39    31    33    1
    40    34    35    1
    41    34    36    1
    42    37    38    1
    43    37    39    1
    44    40    47   ar
    45    41    45   ar
    46    41    48   ar
    47    41    42    1
    48    43    47    1
    49    43    49    1
    50    43    44    1
    51    45    46    1
    52    47    48   ar
    53    49    51    1
    54    49    52    1
    55    49    50    1
    56    51    58   ar
    57    51    60   ar
    58    52    53    1
    59    52    54    1
    60    52    55    1
    61    56    62   ar
    62    56    64   ar
    63    56    57    1
    64    58    64   ar
    65    58    59    1
    66    60    62   ar
    67    60    61    1
    68    62    63    1
    69    64    65    1
@<TRIPOS>SUBSTRUCTURE
     1 RES1        1 GROUP             0 ****  ****    0  
@<TRIPOS>MOLECULE
LIGAND_00024
    65    69     1     0     0
SMALL
USER_CHARGES
****
Generated from the CSD

@<TRIPOS>ATOM
     1 C1      -0.4425  -3.6874 -12.4149   C.ar      1 RES1   0.0000
     2 H2       0.5781  -4.0378 -12.5248   H         1 RES1   0.0000
     3 C3      -3.0296  -2.7544 -12.1541   C.ar      1 RES1   0.0000
     4 H4      -4.0422  -2.3777 -12.0548   H         1 RES1   0.0000
     5 C5      -1.4904  -4.4749 -12.8825   C.ar      1 RES1   0.0000
     6 C6      -0.6746  -2.4617 -11.8165   C.ar      1 RES1   0.0000
     7 H7       0.1482  -1.8593 -11.4464   H         1 RES1   0.0000
     8 C8      -1.9651  -2.0265 -11.7045   C.ar      1 RES1   0.0000
     9 C9      -2.7849  -3.9838 -12.7379   C.ar      1 RES1   0.0000
    10 H10     -3.6247  -4.5750 -13.0851   H         1 RES1   0.0000
    11 C11     -1.2543  -5.8030 -13.5363   C.2       1 RES1   0.0000
    12 F12     -2.2005  -0.8194 -11.1220   F         1 RES1   0.0000
    13 N13     -1.1783  -7.9481 -14.1158   N.am      1 RES1   0.0000
    14 C14     -1.3645  -9.4348 -14.2226   C.3       1 RES1   0.0000
    15 H15     -0.8768  -9.7716 -15.1362   H         1 RES1   0.0000
    16 C16     -0.1172  -7.7265 -16.3967   C.3       1 RES1   0.0000
    17 H17      0.5635  -7.0428 -16.8997   H         1 RES1   0.0000
    18 H18      0.3870  -8.6840 -16.2838   H         1 RES1   0.0000
    19 H19     -0.9851  -7.8732 -17.0362   H         1 RES1   0.0000
    20 C20     -0.5870  -5.9122 -14.7311   C.2       1 RES1   0.0000
    21 C21      0.0604  -4.8376 -15.5265   C.ar      1 RES1   0.0000
    22 O22     -2.2449  -7.5341 -12.1707   O.2       1 RES1   0.0000
    23 C23     -1.6297  -7.1223 -13.1455   C.2       1 RES1   0.0000
    24 N24     -0.5188  -7.1937 -15.0944   N.pl3     1 RES1   0.0000
    25 C25     -0.8600 -11.6524 -13.1481   C.3       1 RES1   0.0000
    26 H26     -0.4187 -12.1255 -12.2721   H         1 RES1   0.0000
    27 H27     -0.3548 -12.0069 -14.0453   H         1 RES1   0.0000
    28 C28     -2.9924 -11.3415 -14.3761   C.3       1 RES1   0.0000
    29 H29     -2.5504 -11.6989 -15.3050   H         1 RES1   0.0000
    30 H30     -4.0517 -11.5933 -14.3577   H         1 RES1   0.0000
    31 C31     -2.8371  -9.8301 -14.2985   C.3       1 RES1   0.0000
    32 H32     -3.2814  -9.3804 -15.1852   H         1 RES1   0.0000
    33 H33     -3.3502  -9.4646 -13.4102   H         1 RES1   0.0000
    34 C34     -0.7023 -10.1456 -13.0417   C.3       1 RES1   0.0000
    35 H35     -1.1654  -9.8045 -12.1169   H         1 RES1   0.0000
    36 H36      0.3585  -9.8996 -13.0286   H         1 RES1   0.0000
    37 N37     -2.3118 -12.0021 -13.2238   N.4       1 RES1   1.0000
    38 H38     -2.7641 -11.7071 -12.3644   H         1 RES1   0.0000
    39 H39     -2.4007 -13.0081 -13.3249   H         1 RES1   0.0000
    40 N40     -0.4745  -4.5722 -16.7286   N.ar      1 RES1   0.0000
    41 C41      1.6905  -3.1773 -15.9048   C.ar      1 RES1   0.0000
    42 H42      2.5557  -2.6175 -15.5653   H         1 RES1   0.0000
    43 N43     -0.4029  -3.3687 -18.6792   N.pl3     1 RES1   0.0000
    44 H44     -1.1761  -3.9524 -18.9980   H         1 RES1   0.0000
    45 C45      1.1705  -4.1438 -15.0676   C.ar      1 RES1   0.0000
    46 H46      1.6110  -4.3522 -14.0982   H         1 RES1   0.0000
    47 C47      0.1180  -3.6205 -17.4677   C.ar      1 RES1   0.0000
    48 N48      1.1874  -2.8931 -17.1131   N.ar      1 RES1   0.0000
    49 C49      0.1097  -2.3511 -19.5964   C.3       1 RES1   0.0000
    50 H50      1.1538  -2.5956 -19.8462   H         1 RES1   0.0000
    51 C51      0.0702  -0.9594 -18.9963   C.ar      1 RES1   0.0000
    52 C52     -0.7226  -2.4167 -20.8716   C.3       1 RES1   0.0000
    53 H53     -0.3620  -1.6990 -21.6055   H         1 RES1   0.0000
    54 H54     -0.6739  -3.4088 -21.3157   H         1 RES1   0.0000
    55 H55     -1.7659  -2.1906 -20.6615   H         1 RES1   0.0000
    56 C56     -0.0148   1.5936 -17.8849   C.ar      1 RES1   0.0000
    57 H57     -0.0474   2.5878 -17.4516   H         1 RES1   0.0000
    58 C58     -0.9023  -0.6219 -18.0660   C.ar      1 RES1   0.0000
    59 H59     -1.6387  -1.3611 -17.7684   H         1 RES1   0.0000
    60 C60      0.9987   0.0052 -19.3625   C.ar      1 RES1   0.0000
    61 H61      1.7675  -0.2350 -20.0894   H         1 RES1   0.0000
    62 C62      0.9554   1.2737 -18.8090   C.ar      1 RES1   0.0000
    63 H63      1.6881   2.0174 -19.1042   H         1 RES1   0.0000
    64 C64     -0.9436   0.6467 -17.5131   C.ar      1 RES1   0.0000
    65 H65     -1.7091   0.8952 -16.7855   H         1 RES1   0.0000
@<TRIPOS>BOND
     1     1     5   ar
     2     1     6   ar
     3     1     2    1
     4     3     8   ar
     5     3     9   ar
     6     3     4    1
     7     5     9   ar
     8     5    11    1
     9     6     8   ar
    10     6     7    1
    11     8    12    1
    12     9    10    1
    13    11    20    2
    14    11    23    1
    15    13    14    1
    16    13    23   am
    17    13    24    1
    18    14    31    1
    19    14    34    1
    20    14    15    1
    21    16    24    1
    22    16    17    1
    23    16    18    1
    24    16    19    1
    25    20    21    1
    26    20    24    1
    27    21    40   ar
    28    21    45   ar
    29    22    23    2
    30    25    34    1
    31    25    37    1
    32    25    26    1
    33    25    27    1
    34    28    31    1
    35    28    37    1
    36    28    29    1
    37    28    30    1
    38    31    32    1
    39    31    33    1
    40    34    35    1
    41    34    36    1
    42    37    38    1
    43    37    39    1
    44    40    47   ar
    45    41    45   ar
    46    41    48   ar
    47    41    42    1
    48    43    47    1
    49    43    49    1
    50    43    44    1
    51    45    46    1
    52    47    48   ar
    53    49    51    1
    54    49    52    1
    55    49    50    1
    56    51    58   ar
    57    51    60   ar
    58    52    53    1
    59    52    54    1
    60    52    55    1
    61    56    62   ar
    62    56    64   ar
    63    56    57    1
    64    58    64   ar
    65    58    59    1
    66    60    62   ar
    67    60    61    1
    68    62    63    1
    69    64    65    1
@<TRIPOS>SUBSTRUCTURE
     1 RES1        1 GROUP             0 ****  ****    0  
@<TRIPOS>MOLECULE
LIGAND_00025
    65    69     1     0     0
SMALL
USER_CHARGES
****
Generated from the CSD

@<TRIPOS>ATOM
     1 C1      -0.3077  -4.3801 -11.5417   C.ar      1 RES1   0.0000
     2 H2       0.3353  -5.1853 -11.2030   H         1 RES1   0.0000
     3 C3      -1.9091  -2.3000 -12.4022   C.ar      1 RES1   0.0000
     4 H4      -2.5296  -1.4758 -12.7381   H         1 RES1   0.0000
     5 C5      -1.0923  -4.5622 -12.6765   C.ar      1 RES1   0.0000
     6 C6      -0.3257  -3.1891 -10.8375   C.ar      1 RES1   0.0000
     7 H7       0.2823  -3.0600  -9.9484   H         1 RES1   0.0000
     8 C8      -1.1262  -2.1782 -11.2898   C.ar      1 RES1   0.0000
     9 C9      -1.8921  -3.5001 -13.0890   C.ar      1 RES1   0.0000
    10 H10     -2.5209  -3.6109 -13.9651   H         1 RES1   0.0000
    11 C11     -1.0806  -5.8452 -13.4517   C.2       1 RES1   0.0000
    12 F12     -1.1448  -1.0021 -10.6053   F         1 RES1   0.0000
    13 N13     -1.3015  -7.9300 -14.1916   N.am      1 RES1   0.0000
    14 C14     -1.6523  -9.3783 -14.3806   C.3       1 RES1   0.0000
    15 H15     -1.3240  -9.6786 -15.3745   H         1 RES1   0.0000
    16 C16     -0.5248  -7.6117 -16.5735   C.3       1 RES1   0.0000
    17 H17      0.1961  -6.9868 -17.0966   H         1 RES1   0.0000
    18 H18     -0.1655  -8.6384 -16.6007   H         1 RES1   0.0000
    19 H19     -1.4678  -7.5678 -17.1141   H         1 RES1   0.0000
    20 C20     -0.5870  -5.9122 -14.7311   C.2       1 RES1   0.0000
    21 C21      0.0604  -4.8376 -15.5265   C.ar      1 RES1   0.0000
    22 O22     -2.0611  -7.5884 -12.0943   O.2       1 RES1   0.0000
    23 C23     -1.5368  -7.1528 -13.1110   C.2       1 RES1   0.0000
    24 N24     -0.6987  -7.1584 -15.1931   N.pl3     1 RES1   0.0000
    25 C25     -1.2450 -11.7176 -13.5506   C.3       1 RES1   0.0000
    26 H26     -0.7456 -12.3034 -12.7803   H         1 RES1   0.0000
    27 H27     -0.8991 -12.0385 -14.5321   H         1 RES1   0.0000
    28 C28     -3.4745 -11.1058 -14.4491   C.3       1 RES1   0.0000
    29 H29     -3.1953 -11.4210 -15.4534   H         1 RES1   0.0000
    30 H30     -4.5428 -11.2592 -14.3043   H         1 RES1   0.0000
    31 C31     -3.1553  -9.6277 -14.2829   C.3       1 RES1   0.0000
    32 H32     -3.6614  -9.0639 -15.0651   H         1 RES1   0.0000
    33 H33     -3.5090  -9.2943 -13.3084   H         1 RES1   0.0000
    34 C34     -0.9202 -10.2467 -13.3567   C.3       1 RES1   0.0000
    35 H35     -1.2225  -9.9454 -12.3548   H         1 RES1   0.0000
    36 H36      0.1530 -10.1019 -13.4710   H         1 RES1   0.0000
    37 N37     -2.7227 -11.9236 -13.4523   N.4       1 RES1   1.0000
    38 H38     -3.0275 -11.6634 -12.5197   H         1 RES1   0.0000
    39 H39     -2.9272 -12.9046 -13.6136   H         1 RES1   0.0000
    40 N40      1.3518  -5.0181 -15.8447   N.ar      1 RES1   0.0000
    41 C41      0.0944  -2.7605 -16.6407   C.ar      1 RES1   0.0000
    42 H42     -0.4181  -1.8597 -16.9618   H         1 RES1   0.0000
    43 N43      3.2523  -4.2108 -16.8421   N.pl3     1 RES1   0.0000
    44 H44      3.7047  -3.5049 -17.4229   H         1 RES1   0.0000
    45 C45     -0.6202  -3.6935 -15.9166   C.ar      1 RES1   0.0000
    46 H46     -1.6635  -3.5377 -15.6629   H         1 RES1   0.0000
    47 C47      1.9548  -4.0414 -16.5414   C.ar      1 RES1   0.0000
    48 N48      1.3851  -2.9047 -16.9677   N.ar      1 RES1   0.0000
    49 C49      4.0410  -5.3758 -16.4418   C.3       1 RES1   0.0000
    50 H50      3.5897  -6.2766 -16.8858   H         1 RES1   0.0000
    51 C51      4.0889  -5.5518 -14.9367   C.ar      1 RES1   0.0000
    52 C52      5.4434  -5.2033 -17.0135   C.3       1 RES1   0.0000
    53 H53      6.0671  -6.0615 -16.7722   H         1 RES1   0.0000
    54 H54      5.4107  -5.1020 -18.0962   H         1 RES1   0.0000
    55 H55      5.9183  -4.3141 -16.6043   H         1 RES1   0.0000
    56 C56      4.1755  -5.8599 -12.1694   C.ar      1 RES1   0.0000
    57 H57      4.2085  -5.9801 -11.0916   H         1 RES1   0.0000
    58 C58      4.0113  -4.4502 -14.0968   C.ar      1 RES1   0.0000
    59 H59      3.9163  -3.4570 -14.5230   H         1 RES1   0.0000
    60 C60      4.2132  -6.8113 -14.3664   C.ar      1 RES1   0.0000
    61 H61      4.2774  -7.6874 -15.0031   H         1 RES1   0.0000
    62 C62      4.2557  -6.9629 -12.9907   C.ar      1 RES1   0.0000
    63 H63      4.3525  -7.9535 -12.5590   H         1 RES1   0.0000
    64 C64      4.0533  -4.6038 -12.7214   C.ar      1 RES1   0.0000
    65 H65      3.9897  -3.7329 -12.0776   H         1 RES1   0.0000
@<TRIPOS>BOND
     1     1     5   ar
     2     1     6   ar
     3     1     2    1
     4     3     8   ar
     5     3     9   ar
     6     3     4    1
     7     5     9   ar
     8     5    11    1
     9     6     8   ar
    10     6     7    1
    11     8    12    1
    12     9    10    1
    13    11    20    2
    14    11    23    1
    15    13    14    1
    16    13    23   am
    17    13    24    1
    18    14    31    1
    19    14    34    1
    20    14    15    1
    21    16    24    1
    22    16    17    1
    23    16    18    1
    24    16    19    1
    25    20    21    1
    26    20    24    1
    27    21    40   ar
    28    21    45   ar
    29    22    23    2
    30    25    34    1
    31    25    37    1
    32    25    26    1
    33    25    27    1
    34    28    31    1
    35    28    37    1
    36    28    29    1
    37    28    30    1
    38    31    32    1
    39    31    33    1
    40    34    35    1
    41    34    36    1
    42    37    38    1
    43    37    39    1
    44    40    47   ar
    45    41    45   ar
    46    41    48   ar
    47    41    42    1
    48    43    47    1
    49    43    49    1
    50    43    44    1
    51    45    46    1
    52    47    48   ar
    53    49    51    1
    54    49    52    1
    55    49    50    1
    56    51    58   ar
    57    51    60   ar
    58    52    53    1
    59    52    54    1
    60    52    55    1
    61    56    62   ar
    62    56    64   ar
    63    56    57    1
    64    58    64   ar
    65    58    59    1
    66    60    62   ar
    67    60    61    1
    68    62    63    1
    69    64    65    1
@<TRIPOS>SUBSTRUCTURE
     1 RES1        1 GROUP             0 ****  ****    0  
@<TRIPOS>MOLECULE
LIGAND_00026
    65    69     1     0     0
SMALL
USER_CHARGES
****
Generated from the CSD

@<TRIPOS>ATOM
     1 C1      -0.3074  -4.3806 -11.5413   C.ar      1 RES1   0.0000
     2 H2       0.3352  -5.1860 -11.2026   H         1 RES1   0.0000
     3 C3      -1.9080  -2.2999 -12.4020   C.ar      1 RES1   0.0000
     4 H4      -2.5282  -1.4755 -12.7379   H         1 RES1   0.0000
     5 C5      -1.0919  -4.5623 -12.6763   C.ar      1 RES1   0.0000
     6 C6      -0.3253  -3.1896 -10.8371   C.ar      1 RES1   0.0000
     7 H7       0.2826  -3.0608  -9.9478   H         1 RES1   0.0000
     8 C8      -1.1253  -2.1784 -11.2894   C.ar      1 RES1   0.0000
     9 C9      -1.8913  -3.4999 -13.0889   C.ar      1 RES1   0.0000
    10 H10     -2.5199  -3.6104 -13.9651   H         1 RES1   0.0000
    11 C11     -1.0804  -5.8452 -13.4517   C.2       1 RES1   0.0000
    12 F12     -1.1437  -1.0024 -10.6049   F         1 RES1   0.0000
    13 N13     -1.3016  -7.9300 -14.1917   N.am      1 RES1   0.0000
    14 C14     -1.6526  -9.3783 -14.3807   C.3       1 RES1   0.0000
    15 H15     -1.3236  -9.6787 -15.3744   H         1 RES1   0.0000
    16 C16     -0.5252  -7.6116 -16.5736   C.3       1 RES1   0.0000
    17 H17      0.1224  -6.9322 -17.1239   H         1 RES1   0.0000
    18 H18     -0.0775  -8.6029 -16.6015   H         1 RES1   0.0000
    19 H19     -1.4836  -7.6574 -17.0865   H         1 RES1   0.0000
    20 C20     -0.5870  -5.9122 -14.7311   C.2       1 RES1   0.0000
    21 C21      0.0604  -4.8376 -15.5265   C.ar      1 RES1   0.0000
    22 O22     -2.0609  -7.5884 -12.0942   O.2       1 RES1   0.0000
    23 C23     -1.5367  -7.1528 -13.1110   C.2       1 RES1   0.0000
    24 N24     -0.6989  -7.1583 -15.1931   N.pl3     1 RES1   0.0000
    25 C25     -1.2464 -11.7175 -13.5502   C.3       1 RES1   0.0000
    26 H26     -0.7477 -12.3033 -12.7794   H         1 RES1   0.0000
    27 H27     -0.8999 -12.0386 -14.5313   H         1 RES1   0.0000
    28 C28     -3.4751 -11.1053 -14.4503   C.3       1 RES1   0.0000
    29 H29     -3.1952 -11.4207 -15.4544   H         1 RES1   0.0000
    30 H30     -4.5436 -11.2585 -14.3063   H         1 RES1   0.0000
    31 C31     -3.1557  -9.6273 -14.2841   C.3       1 RES1   0.0000
    32 H32     -3.6612  -9.0635 -15.0668   H         1 RES1   0.0000
    33 H33     -3.5101  -9.2937 -13.3099   H         1 RES1   0.0000
    34 C34     -0.9215 -10.2466 -13.3561   C.3       1 RES1   0.0000
    35 H35     -1.2244  -9.9451 -12.3545   H         1 RES1   0.0000
    36 H36      0.1519 -10.1021 -13.4697   H         1 RES1   0.0000
    37 N37     -2.7242 -11.9232 -13.4529   N.4       1 RES1   1.0000
    38 H38     -3.0296 -11.6628 -12.5206   H         1 RES1   0.0000
    39 H39     -2.9289 -12.9041 -13.6143   H         1 RES1   0.0000
    40 N40      1.3518  -5.0181 -15.8447   N.ar      1 RES1   0.0000
    41 C41      0.0944  -2.7605 -16.6407   C.ar      1 RES1   0.0000
    42 H42     -0.4181  -1.8597 -16.9618   H         1 RES1   0.0000
    43 N43      3.2523  -4.2108 -16.8421   N.pl3     1 RES1   0.0000
    44 H44      3.7246  -5.0365 -16.4740   H         1 RES1   0.0000
    45 C45     -0.6202  -3.6935 -15.9166   C.ar      1 RES1   0.0000
    46 H46     -1.6635  -3.5377 -15.6629   H         1 RES1   0.0000
    47 C47      1.9548  -4.0414 -16.5414   C.ar      1 RES1   0.0000
    48 N48      1.3851  -2.9047 -16.9677   N.ar      1 RES1   0.0000
    49 C49      4.0470  -3.2539 -17.6116   C.3       1 RES1   0.0000
    50 H50      4.0641  -2.2947 -17.0712   H         1 RES1   0.0000
    51 C51      3.4823  -3.0167 -18.9984   C.ar      1 RES1   0.0000
    52 C52      5.4708  -3.7925 -17.6896   C.3       1 RES1   0.0000
    53 H53      6.1165  -3.1007 -18.2265   H         1 RES1   0.0000
    54 H54      5.8848  -3.9391 -16.6942   H         1 RES1   0.0000
    55 H55      5.4922  -4.7480 -18.2093   H         1 RES1   0.0000
    56 C56      2.4388  -2.5952 -21.5467   C.ar      1 RES1   0.0000
    57 H57      2.0318  -2.4307 -22.5389   H         1 RES1   0.0000
    58 C58      2.7862  -4.0209 -19.6558   C.ar      1 RES1   0.0000
    59 H59      2.6472  -4.9818 -19.1716   H         1 RES1   0.0000
    60 C60      3.6490  -1.7975 -19.6408   C.ar      1 RES1   0.0000
    61 H61      4.1913  -0.9978 -19.1473   H         1 RES1   0.0000
    62 C62      3.1295  -1.5893 -20.9074   C.ar      1 RES1   0.0000
    63 H63      3.2670  -0.6310 -21.3970   H         1 RES1   0.0000
    64 C64      2.2668  -3.8107 -20.9218   C.ar      1 RES1   0.0000
    65 H65      1.7233  -4.6051 -21.4224   H         1 RES1   0.0000
@<TRIPOS>BOND
     1     1     5   ar
     2     1     6   ar
     3     1     2    1
     4     3     8   ar
     5     3     9   ar
     6     3     4    1
     7     5     9   ar
     8     5    11    1
     9     6     8   ar
    10     6     7    1
    11     8    12    1
    12     9    10    1
    13    11    20    2
    14    11    23    1
    15    13    14    1
    16    13    23   am
    17    13    24    1
    18    14    31    1
    19    14    34    1
    20    14    15    1
    21    16    24    1
    22    16    17    1
    23    16    18    1
    24    16    19    1
    25    20    21    1
    26    20    24    1
    27    21    40   ar
    28    21    45   ar
    29    22    23    2
    30    25    34    1
    31    25    37    1
    32    25    26    1
    33    25    27    1
    34    28    31    1
    35    28    37    1
    36    28    29    1
    37    28    30    1
    38    31    32    1
    39    31    33    1
    40    34    35    1
    41    34    36    1
    42    37    38    1
    43    37    39    1
    44    40    47   ar
    45    41    45   ar
    46    41    48   ar
    47    41    42    1
    48    43    47    1
    49    43    49    1
    50    43    44    1
    51    45    46    1
    52    47    48   ar
    53    49    51    1
    54    49    52    1
    55    49    50    1
    56    51    58   ar
    57    51    60   ar
    58    52    53    1
    59    52    54    1
    60    52    55    1
    61    56    62   ar
    62    56    64   ar
    63    56    57    1
    64    58    64   ar
    65    58    59    1
    66    60    62   ar
    67    60    61    1
    68    62    63    1
    69    64    65    1
@<TRIPOS>SUBSTRUCTURE
     1 RES1        1 GROUP             0 ****  ****    0  
@<TRIPOS>MOLECULE
LIGAND_00027
    65    69     1     0     0
SMALL
USER_CHARGES
****
Generated from the CSD

@<TRIPOS>ATOM
     1 C1      -0.3701  -3.8964 -15.9918   C.ar      1 RES1   0.0000
     2 H2      -1.1642  -4.3349 -16.5863   H         1 RES1   0.0000
     3 C3       1.6297  -2.7392 -14.4773   C.ar      1 RES1   0.0000
     4 H4       2.4102  -2.2746 -13.8839   H         1 RES1   0.0000
     5 C5       0.0599  -4.5461 -14.8386   C.ar      1 RES1   0.0000
     6 C6       0.1911  -2.6974 -16.3942   C.ar      1 RES1   0.0000
     7 H7      -0.1441  -2.2032 -17.2999   H         1 RES1   0.0000
     8 C8       1.1764  -2.1489 -15.6225   C.ar      1 RES1   0.0000
     9 C9       1.0700  -3.9440 -14.0935   C.ar      1 RES1   0.0000
    10 H10      1.4331  -4.4269 -13.1935   H         1 RES1   0.0000
    11 C11     -0.5410  -5.8434 -14.3880   C.2       1 RES1   0.0000
    12 F12      1.7291  -0.9670 -16.0092   F         1 RES1   0.0000
    13 N13     -1.2406  -7.9410 -14.1570   N.am      1 RES1   0.0000
    14 C14     -1.5106  -9.4109 -14.3092   C.3       1 RES1   0.0000
    15 H15     -1.0788  -9.7376 -15.2541   H         1 RES1   0.0000
    16 C16     -2.0882  -7.8386 -11.7803   C.3       1 RES1   0.0000
    17 H17     -2.6362  -7.1178 -11.1771   H         1 RES1   0.0000
    18 H18     -2.7548  -8.6689 -12.0043   H         1 RES1   0.0000
    19 H19     -1.2602  -8.2191 -11.1860   H         1 RES1   0.0000
    20 C20     -1.1594  -5.9688 -13.1688   C.2       1 RES1   0.0000
    21 C21     -1.4160  -4.9157 -12.1531   C.ar      1 RES1   0.0000
    22 O22     -0.1808  -7.5094 -16.1020   O.2       1 RES1   0.0000
    23 C23     -0.6007  -7.1206 -15.0199   C.2       1 RES1   0.0000
    24 N24     -1.5984  -7.2184 -13.0119   N.pl3     1 RES1   0.0000
    25 C25     -1.0831 -11.6911 -13.3373   C.3       1 RES1   0.0000
    26 H26     -0.6330 -12.2197 -12.4982   H         1 RES1   0.0000
    27 H27     -0.6342 -12.0371 -14.2672   H         1 RES1   0.0000
    28 C28     -3.2435 -11.2227 -14.4622   C.3       1 RES1   0.0000
    29 H29     -2.8591 -11.5671 -15.4211   H         1 RES1   0.0000
    30 H30     -4.3132 -11.4194 -14.4081   H         1 RES1   0.0000
    31 C31     -3.0042  -9.7256 -14.3370   C.3       1 RES1   0.0000
    32 H32     -3.4589  -9.2199 -15.1874   H         1 RES1   0.0000
    33 H33     -3.4607  -9.3679 -13.4153   H         1 RES1   0.0000
    34 C34     -0.8405 -10.1997 -13.1835   C.3       1 RES1   0.0000
    35 H35     -1.2470  -9.8704 -12.2284   H         1 RES1   0.0000
    36 H36      0.2316 -10.0101 -13.2065   H         1 RES1   0.0000
    37 N37     -2.5534 -11.9614 -13.3641   N.4       1 RES1   1.0000
    38 H38     -2.9543 -11.6761 -12.4763   H         1 RES1   0.0000
    39 H39     -2.7003 -12.9568 -13.4974   H         1 RES1   0.0000
    40 N40     -0.8662  -5.0993 -10.9425   N.ar      1 RES1   0.0000
    41 C41     -2.3708  -2.8985 -11.3940   C.ar      1 RES1   0.0000
    42 H42     -2.9709  -2.0147 -11.5841   H         1 RES1   0.0000
    43 N43     -0.5809  -4.3597  -8.7908   N.pl3     1 RES1   0.0000
    44 H44     -0.0650  -5.2239  -8.6257   H         1 RES1   0.0000
    45 C45     -2.1938  -3.7996 -12.4246   C.ar      1 RES1   0.0000
    46 H46     -2.6438  -3.6432 -13.3994   H         1 RES1   0.0000
    47 C47     -1.1127  -4.1667 -10.0084   C.ar      1 RES1   0.0000
    48 N48     -1.8442  -3.0549 -10.1726   N.ar      1 RES1   0.0000
    49 C49     -0.7485  -3.4377  -7.6677   C.3       1 RES1   0.0000
    50 H50     -0.9163  -2.4247  -8.0652   H         1 RES1   0.0000
    51 C51      0.4657  -3.4052  -6.7605   C.ar      1 RES1   0.0000
    52 C52     -1.9910  -3.8687  -6.8971   C.3       1 RES1   0.0000
    53 H53     -2.1827  -3.1944  -6.0651   H         1 RES1   0.0000
    54 H54     -2.8669  -3.8679  -7.5425   H         1 RES1   0.0000
    55 H55     -1.8660  -4.8727  -6.4972   H         1 RES1   0.0000
    56 C56      2.6995  -3.3604  -5.0965   C.ar      1 RES1   0.0000
    57 H57      3.5698  -3.3427  -4.4490   H         1 RES1   0.0000
    58 C58      1.2265  -4.5484  -6.5621   C.ar      1 RES1   0.0000
    59 H59      0.9477  -5.4707  -7.0608   H         1 RES1   0.0000
    60 C60      0.8418  -2.2388  -6.1086   C.ar      1 RES1   0.0000
    61 H61      0.2612  -1.3327  -6.2468   H         1 RES1   0.0000
    62 C62      1.9526  -2.2179  -5.2820   C.ar      1 RES1   0.0000
    63 H63      2.2350  -1.2988  -4.7795   H         1 RES1   0.0000
    64 C64      2.3372  -4.5255  -5.7360   C.ar      1 RES1   0.0000
    65 H65      2.9233  -5.4271  -5.5922   H         1 RES1   0.0000
@<TRIPOS>BOND
     1     1     5   ar
     2     1     6   ar
     3     1     2    1
     4     3     8   ar
     5     3     9   ar
     6     3     4    1
     7     5     9   ar
     8     5    11    1
     9     6     8   ar
    10     6     7    1
    11     8    12    1
    12     9    10    1
    13    11    20    2
    14    11    23    1
    15    13    14    1
    16    13    23   am
    17    13    24    1
    18    14    31    1
    19    14    34    1
    20    14    15    1
    21    16    24    1
    22    16    17    1
    23    16    18    1
    24    16    19    1
    25    20    21    1
    26    20    24    1
    27    21    40   ar
    28    21    45   ar
    29    22    23    2
    30    25    34    1
    31    25    37    1
    32    25    26    1
    33    25    27    1
    34    28    31    1
    35    28    37    1
    36    28    29    1
    37    28    30    1
    38    31    32    1
    39    31    33    1
    40    34    35    1
    41    34    36    1
    42    37    38    1
    43    37    39    1
    44    40    47   ar
    45    41    45   ar
    46    41    48   ar
    47    41    42    1
    48    43    47    1
    49    43    49    1
    50    43    44    1
    51    45    46    1
    52    47    48   ar
    53    49    51    1
    54    49    52    1
    55    49    50    1
    56    51    58   ar
    57    51    60   ar
    58    52    53    1
    59    52    54    1
    60    52    55    1
    61    56    62   ar
    62    56    64   ar
    63    56    57    1
    64    58    64   ar
    65    58    59    1
    66    60    62   ar
    67    60    61    1
    68    62    63    1
    69    64    65    1
@<TRIPOS>SUBSTRUCTURE
     1 RES1        1 GROUP             0 ****  ****    0  
@<TRIPOS>MOLECULE
LIGAND_00028
    65    69     1     0     0
SMALL
USER_CHARGES
****
Generated from the CSD

@<TRIPOS>ATOM
     1 C1      -0.3701  -3.8964 -15.9918   C.ar      1 RES1   0.0000
     2 H2      -1.1642  -4.3349 -16.5863   H         1 RES1   0.0000
     3 C3       1.6297  -2.7392 -14.4773   C.ar      1 RES1   0.0000
     4 H4       2.4102  -2.2746 -13.8839   H         1 RES1   0.0000
     5 C5       0.0599  -4.5461 -14.8386   C.ar      1 RES1   0.0000
     6 C6       0.1911  -2.6974 -16.3942   C.ar      1 RES1   0.0000
     7 H7      -0.1441  -2.2032 -17.2999   H         1 RES1   0.0000
     8 C8       1.1764  -2.1489 -15.6225   C.ar      1 RES1   0.0000
     9 C9       1.0700  -3.9440 -14.0935   C.ar      1 RES1   0.0000
    10 H10      1.4331  -4.4269 -13.1935   H         1 RES1   0.0000
    11 C11     -0.5410  -5.8434 -14.3880   C.2       1 RES1   0.0000
    12 F12      1.7291  -0.9670 -16.0092   F         1 RES1   0.0000
    13 N13     -1.2406  -7.9410 -14.1570   N.am      1 RES1   0.0000
    14 C14     -1.5106  -9.4109 -14.3092   C.3       1 RES1   0.0000
    15 H15     -1.0789  -9.7376 -15.2541   H         1 RES1   0.0000
    16 C16     -2.0882  -7.8386 -11.7803   C.3       1 RES1   0.0000
    17 H17     -2.6361  -7.1177 -11.1770   H         1 RES1   0.0000
    18 H18     -2.7550  -8.6688 -12.0043   H         1 RES1   0.0000
    19 H19     -1.2602  -8.2192 -11.1860   H         1 RES1   0.0000
    20 C20     -1.1594  -5.9688 -13.1688   C.2       1 RES1   0.0000
    21 C21     -1.4160  -4.9157 -12.1531   C.ar      1 RES1   0.0000
    22 O22     -0.1808  -7.5094 -16.1020   O.2       1 RES1   0.0000
    23 C23     -0.6007  -7.1206 -15.0199   C.2       1 RES1   0.0000
    24 N24     -1.5984  -7.2184 -13.0119   N.pl3     1 RES1   0.0000
    25 C25     -1.0831 -11.6911 -13.3373   C.3       1 RES1   0.0000
    26 H26     -0.6329 -12.2197 -12.4983   H         1 RES1   0.0000
    27 H27     -0.6342 -12.0371 -14.2672   H         1 RES1   0.0000
    28 C28     -3.2434 -11.2227 -14.4622   C.3       1 RES1   0.0000
    29 H29     -2.8591 -11.5671 -15.4211   H         1 RES1   0.0000
    30 H30     -4.3132 -11.4194 -14.4080   H         1 RES1   0.0000
    31 C31     -3.0042  -9.7256 -14.3369   C.3       1 RES1   0.0000
    32 H32     -3.4590  -9.2199 -15.1874   H         1 RES1   0.0000
    33 H33     -3.4607  -9.3679 -13.4152   H         1 RES1   0.0000
    34 C34     -0.8405 -10.1997 -13.1836   C.3       1 RES1   0.0000
    35 H35     -1.2470  -9.8704 -12.2284   H         1 RES1   0.0000
    36 H36      0.2317 -10.0101 -13.2065   H         1 RES1   0.0000
    37 N37     -2.5534 -11.9614 -13.3641   N.4       1 RES1   1.0000
    38 H38     -2.9542 -11.6762 -12.4762   H         1 RES1   0.0000
    39 H39     -2.7002 -12.9568 -13.4973   H         1 RES1   0.0000
    40 N40     -0.8662  -5.0993 -10.9425   N.ar      1 RES1   0.0000
    41 C41     -2.3708  -2.8985 -11.3940   C.ar      1 RES1   0.0000
    42 H42     -2.9709  -2.0147 -11.5841   H         1 RES1   0.0000
    43 N43     -0.5809  -4.3597  -8.7908   N.pl3     1 RES1   0.0000
    44 H44     -0.7193  -3.6336  -8.0879   H         1 RES1   0.0000
    45 C45     -2.1938  -3.7996 -12.4246   C.ar      1 RES1   0.0000
    46 H46     -2.6438  -3.6432 -13.3994   H         1 RES1   0.0000
    47 C47     -1.1127  -4.1667 -10.0084   C.ar      1 RES1   0.0000
    48 N48     -1.8442  -3.0549 -10.1726   N.ar      1 RES1   0.0000
    49 C49      0.2376  -5.5163  -8.4278   C.3       1 RES1   0.0000
    50 H50     -0.0444  -6.3637  -9.0717   H         1 RES1   0.0000
    51 C51      0.0492  -5.9263  -6.9804   C.ar      1 RES1   0.0000
    52 C52      1.6929  -5.1585  -8.7060   C.3       1 RES1   0.0000
    53 H53      2.3467  -5.9990  -8.4831   H         1 RES1   0.0000
    54 H54      1.8326  -4.8883  -9.7506   H         1 RES1   0.0000
    55 H55      2.0050  -4.3152  -8.0935   H         1 RES1   0.0000
    56 C56     -0.2994  -6.6648  -4.3170   C.ar      1 RES1   0.0000
    57 H57     -0.4358  -6.9526  -3.2799   H         1 RES1   0.0000
    58 C58     -0.2054  -4.9717  -6.0062   C.ar      1 RES1   0.0000
    59 H59     -0.2689  -3.9251  -6.2853   H         1 RES1   0.0000
    60 C60      0.1287  -7.2581  -6.5970   C.ar      1 RES1   0.0000
    61 H61      0.3286  -8.0222  -7.3408   H         1 RES1   0.0000
    62 C62     -0.0451  -7.6237  -5.2728   C.ar      1 RES1   0.0000
    63 H63      0.0191  -8.6685  -4.9878   H         1 RES1   0.0000
    64 C64     -0.3797  -5.3392  -4.6828   C.ar      1 RES1   0.0000
    65 H65     -0.5799  -4.5814  -3.9327   H         1 RES1   0.0000
@<TRIPOS>BOND
     1     1     5   ar
     2     1     6   ar
     3     1     2    1
     4     3     8   ar
     5     3     9   ar
     6     3     4    1
     7     5     9   ar
     8     5    11    1
     9     6     8   ar
    10     6     7    1
    11     8    12    1
    12     9    10    1
    13    11    20    2
    14    11    23    1
    15    13    14    1
    16    13    23   am
    17    13    24    1
    18    14    31    1
    19    14    34    1
    20    14    15    1
    21    16    24    1
    22    16    17    1
    23    16    18    1
    24    16    19    1
    25    20    21    1
    26    20    24    1
    27    21    40   ar
    28    21    45   ar
    29    22    23    2
    30    25    34    1
    31    25    37    1
    32    25    26    1
    33    25    27    1
    34    28    31    1
    35    28    37    1
    36    28    29    1
    37    28    30    1
    38    31    32    1
    39    31    33    1
    40    34    35    1
    41    34    36    1
    42    37    38    1
    43    37    39    1
    44    40    47   ar
    45    41    45   ar
    46    41    48   ar
    47    41    42    1
    48    43    47    1
    49    43    49    1
    50    43    44    1
    51    45    46    1
    52    47    48   ar
    53    49    51    1
    54    49    52    1
    55    49    50    1
    56    51    58   ar
    57    51    60   ar
    58    52    53    1
    59    52    54    1
    60    52    55    1
    61    56    62   ar
    62    56    64   ar
    63    56    57    1
    64    58    64   ar
    65    58    59    1
    66    60    62   ar
    67    60    61    1
    68    62    63    1
    69    64    65    1
@<TRIPOS>SUBSTRUCTURE
     1 RES1        1 GROUP             0 ****  ****    0  
@<TRIPOS>MOLECULE
LIGAND_00029
    65    69     1     0     0
SMALL
USER_CHARGES
****
Generated from the CSD

@<TRIPOS>ATOM
     1 C1      -0.7027  -3.3903 -14.9781   C.ar      1 RES1   0.0000
     2 H2      -1.7635  -3.4211 -14.7543   H         1 RES1   0.0000
     3 C3       2.0037  -3.2747 -15.5205   C.ar      1 RES1   0.0000
     4 H4       3.0672  -3.2194 -15.7282   H         1 RES1   0.0000
     5 C5       0.0599  -4.5461 -14.8386   C.ar      1 RES1   0.0000
     6 C6      -0.1343  -2.1985 -15.3916   C.ar      1 RES1   0.0000
     7 H7      -0.7388  -1.3050 -15.5067   H         1 RES1   0.0000
     8 C8       1.2073  -2.1727 -15.6497   C.ar      1 RES1   0.0000
     9 C9       1.4207  -4.4628 -15.1196   C.ar      1 RES1   0.0000
    10 H10      2.0424  -5.3462 -15.0278   H         1 RES1   0.0000
    11 C11     -0.5410  -5.8434 -14.3880   C.2       1 RES1   0.0000
    12 F12      1.7741  -1.0026 -16.0515   F         1 RES1   0.0000
    13 N13     -1.2406  -7.9410 -14.1570   N.am      1 RES1   0.0000
    14 C14     -1.5106  -9.4109 -14.3092   C.3       1 RES1   0.0000
    15 H15     -1.0788  -9.7376 -15.2541   H         1 RES1   0.0000
    16 C16     -2.0882  -7.8386 -11.7803   C.3       1 RES1   0.0000
    17 H17     -2.6362  -7.1178 -11.1771   H         1 RES1   0.0000
    18 H18     -2.7548  -8.6689 -12.0043   H         1 RES1   0.0000
    19 H19     -1.2602  -8.2191 -11.1860   H         1 RES1   0.0000
    20 C20     -1.1594  -5.9688 -13.1688   C.2       1 RES1   0.0000
    21 C21     -1.4160  -4.9157 -12.1531   C.ar      1 RES1   0.0000
    22 O22     -0.1808  -7.5094 -16.1020   O.2       1 RES1   0.0000
    23 C23     -0.6007  -7.1206 -15.0199   C.2       1 RES1   0.0000
    24 N24     -1.5984  -7.2184 -13.0119   N.pl3     1 RES1   0.0000
    25 C25     -1.0831 -11.6911 -13.3373   C.3       1 RES1   0.0000
    26 H26     -0.6330 -12.2197 -12.4982   H         1 RES1   0.0000
    27 H27     -0.6342 -12.0371 -14.2672   H         1 RES1   0.0000
    28 C28     -3.2435 -11.2227 -14.4622   C.3       1 RES1   0.0000
    29 H29     -2.8591 -11.5671 -15.4211   H         1 RES1   0.0000
    30 H30     -4.3132 -11.4194 -14.4081   H         1 RES1   0.0000
    31 C31     -3.0042  -9.7256 -14.3370   C.3       1 RES1   0.0000
    32 H32     -3.4589  -9.2199 -15.1874   H         1 RES1   0.0000
    33 H33     -3.4607  -9.3679 -13.4153   H         1 RES1   0.0000
    34 C34     -0.8405 -10.1997 -13.1835   C.3       1 RES1   0.0000
    35 H35     -1.2470  -9.8704 -12.2284   H         1 RES1   0.0000
    36 H36      0.2316 -10.0101 -13.2065   H         1 RES1   0.0000
    37 N37     -2.5534 -11.9614 -13.3641   N.4       1 RES1   1.0000
    38 H38     -2.9543 -11.6761 -12.4763   H         1 RES1   0.0000
    39 H39     -2.7003 -12.9568 -13.4974   H         1 RES1   0.0000
    40 N40     -2.6992  -4.6898 -11.8302   N.ar      1 RES1   0.0000
    41 C41     -0.7580  -3.2243 -10.6488   C.ar      1 RES1   0.0000
    42 H42      0.0265  -2.6440 -10.1743   H         1 RES1   0.0000
    43 N43     -4.2293  -3.4806 -10.6241   N.pl3     1 RES1   0.0000
    44 H44     -4.9477  -4.0051 -11.1232   H         1 RES1   0.0000
    45 C45     -0.3913  -4.1856 -11.5689   C.ar      1 RES1   0.0000
    46 H46      0.6486  -4.3597 -11.8246   H         1 RES1   0.0000
    47 C47     -2.9451  -3.7222 -10.9322   C.ar      1 RES1   0.0000
    48 N48     -2.0280  -2.9671 -10.3100   N.ar      1 RES1   0.0000
    49 C49     -4.6650  -2.4678  -9.6628   C.3       1 RES1   0.0000
    50 H50     -3.8604  -2.3100  -8.9280   H         1 RES1   0.0000
    51 C51     -5.9222  -2.8777  -8.9213   C.ar      1 RES1   0.0000
    52 C52     -4.8850  -1.1682 -10.4283   C.3       1 RES1   0.0000
    53 H53     -5.1806  -0.3678  -9.7533   H         1 RES1   0.0000
    54 H54     -3.9753  -0.8611 -10.9401   H         1 RES1   0.0000
    55 H55     -5.6685  -1.2892 -11.1735   H         1 RES1   0.0000
    56 C56     -8.2373  -3.6385  -7.5715   C.ar      1 RES1   0.0000
    57 H57     -9.1385  -3.9353  -7.0454   H         1 RES1   0.0000
    58 C58     -6.8924  -3.6438  -9.5514   C.ar      1 RES1   0.0000
    59 H59     -6.7477  -3.9496 -10.5823   H         1 RES1   0.0000
    60 C60     -6.1328  -2.4968  -7.6032   C.ar      1 RES1   0.0000
    61 H61     -5.3890  -1.8962  -7.0902   H         1 RES1   0.0000
    62 C62     -7.2838  -2.8760  -6.9334   C.ar      1 RES1   0.0000
    63 H63     -7.4346  -2.5715  -5.9030   H         1 RES1   0.0000
    64 C64     -8.0423  -4.0226  -8.8799   C.ar      1 RES1   0.0000
    65 H65     -8.7911  -4.6232  -9.3854   H         1 RES1   0.0000
@<TRIPOS>BOND
     1     1     5   ar
     2     1     6   ar
     3     1     2    1
     4     3     8   ar
     5     3     9   ar
     6     3     4    1
     7     5     9   ar
     8     5    11    1
     9     6     8   ar
    10     6     7    1
    11     8    12    1
    12     9    10    1
    13    11    20    2
    14    11    23    1
    15    13    14    1
    16    13    23   am
    17    13    24    1
    18    14    31    1
    19    14    34    1
    20    14    15    1
    21    16    24    1
    22    16    17    1
    23    16    18    1
    24    16    19    1
    25    20    21    1
    26    20    24    1
    27    21    40   ar
    28    21    45   ar
    29    22    23    2
    30    25    34    1
    31    25    37    1
    32    25    26    1
    33    25    27    1
    34    28    31    1
    35    28    37    1
    36    28    29    1
    37    28    30    1
    38    31    32    1
    39    31    33    1
    40    34    35    1
    41    34    36    1
    42    37    38    1
    43    37    39    1
    44    40    47   ar
    45    41    45   ar
    46    41    48   ar
    47    41    42    1
    48    43    47    1
    49    43    49    1
    50    43    44    1
    51    45    46    1
    52    47    48   ar
    53    49    51    1
    54    49    52    1
    55    49    50    1
    56    51    58   ar
    57    51    60   ar
    58    52    53    1
    59    52    54    1
    60    52    55    1
    61    56    62   ar
    62    56    64   ar
    63    56    57    1
    64    58    64   ar
    65    58    59    1
    66    60    62   ar
    67    60    61    1
    68    62    63    1
    69    64    65    1
@<TRIPOS>SUBSTRUCTURE
     1 RES1        1 GROUP             0 ****  ****    0  
@<TRIPOS>MOLECULE
LIGAND_00030
    65    69     1     0     0
SMALL
USER_CHARGES
****
Generated from the CSD

@<TRIPOS>ATOM
     1 C1      -0.7027  -3.3903 -14.9781   C.ar      1 RES1   0.0000
     2 H2      -1.7635  -3.4211 -14.7543   H         1 RES1   0.0000
     3 C3       2.0037  -3.2747 -15.5205   C.ar      1 RES1   0.0000
     4 H4       3.0672  -3.2194 -15.7282   H         1 RES1   0.0000
     5 C5       0.0599  -4.5461 -14.8386   C.ar      1 RES1   0.0000
     6 C6      -0.1343  -2.1985 -15.3916   C.ar      1 RES1   0.0000
     7 H7      -0.7388  -1.3050 -15.5067   H         1 RES1   0.0000
     8 C8       1.2073  -2.1727 -15.6497   C.ar      1 RES1   0.0000
     9 C9       1.4207  -4.4628 -15.1196   C.ar      1 RES1   0.0000
    10 H10      2.0424  -5.3462 -15.0278   H         1 RES1   0.0000
    11 C11     -0.5410  -5.8434 -14.3880   C.2       1 RES1   0.0000
    12 F12      1.7741  -1.0026 -16.0515   F         1 RES1   0.0000
    13 N13     -1.2406  -7.9410 -14.1570   N.am      1 RES1   0.0000
    14 C14     -1.5106  -9.4109 -14.3092   C.3       1 RES1   0.0000
    15 H15     -1.0789  -9.7376 -15.2541   H         1 RES1   0.0000
    16 C16     -2.0882  -7.8386 -11.7803   C.3       1 RES1   0.0000
    17 H17     -2.6361  -7.1177 -11.1770   H         1 RES1   0.0000
    18 H18     -2.7550  -8.6688 -12.0043   H         1 RES1   0.0000
    19 H19     -1.2602  -8.2192 -11.1860   H         1 RES1   0.0000
    20 C20     -1.1594  -5.9688 -13.1688   C.2       1 RES1   0.0000
    21 C21     -1.4160  -4.9157 -12.1531   C.ar      1 RES1   0.0000
    22 O22     -0.1808  -7.5094 -16.1020   O.2       1 RES1   0.0000
    23 C23     -0.6007  -7.1206 -15.0199   C.2       1 RES1   0.0000
    24 N24     -1.5984  -7.2184 -13.0119   N.pl3     1 RES1   0.0000
    25 C25     -1.0831 -11.6911 -13.3373   C.3       1 RES1   0.0000
    26 H26     -0.6329 -12.2197 -12.4983   H         1 RES1   0.0000
    27 H27     -0.6342 -12.0371 -14.2672   H         1 RES1   0.0000
    28 C28     -3.2434 -11.2227 -14.4622   C.3       1 RES1   0.0000
    29 H29     -2.8591 -11.5671 -15.4211   H         1 RES1   0.0000
    30 H30     -4.3132 -11.4194 -14.4080   H         1 RES1   0.0000
    31 C31     -3.0042  -9.7256 -14.3369   C.3       1 RES1   0.0000
    32 H32     -3.4590  -9.2199 -15.1874   H         1 RES1   0.0000
    33 H33     -3.4607  -9.3679 -13.4152   H         1 RES1   0.0000
    34 C34     -0.8405 -10.1997 -13.1836   C.3       1 RES1   0.0000
    35 H35     -1.2470  -9.8704 -12.2284   H         1 RES1   0.0000
    36 H36      0.2317 -10.0101 -13.2065   H         1 RES1   0.0000
    37 N37     -2.5534 -11.9614 -13.3641   N.4       1 RES1   1.0000
    38 H38     -2.9542 -11.6762 -12.4762   H         1 RES1   0.0000
    39 H39     -2.7002 -12.9568 -13.4973   H         1 RES1   0.0000
    40 N40     -2.6992  -4.6898 -11.8302   N.ar      1 RES1   0.0000
    41 C41     -0.7580  -3.2243 -10.6488   C.ar      1 RES1   0.0000
    42 H42      0.0265  -2.6440 -10.1743   H         1 RES1   0.0000
    43 N43     -4.2293  -3.4806 -10.6241   N.pl3     1 RES1   0.0000
    44 H44     -4.4258  -2.7829  -9.9065   H         1 RES1   0.0000
    45 C45     -0.3913  -4.1856 -11.5689   C.ar      1 RES1   0.0000
    46 H46      0.6486  -4.3597 -11.8246   H         1 RES1   0.0000
    47 C47     -2.9451  -3.7222 -10.9322   C.ar      1 RES1   0.0000
    48 N48     -2.0280  -2.9671 -10.3100   N.ar      1 RES1   0.0000
    49 C49     -5.3615  -4.1997 -11.2075   C.3       1 RES1   0.0000
    50 H50     -5.0698  -4.5680 -12.2033   H         1 RES1   0.0000
    51 C51     -6.5883  -3.3217 -11.3580   C.ar      1 RES1   0.0000
    52 C52     -5.6577  -5.3987 -10.3142   C.3       1 RES1   0.0000
    53 H53     -6.4750  -5.9907 -10.7207   H         1 RES1   0.0000
    54 H54     -4.7845  -6.0418 -10.2266   H         1 RES1   0.0000
    55 H55     -5.9400  -5.0730  -9.3152   H         1 RES1   0.0000
    56 C56     -8.8384  -1.7007 -11.6215   C.ar      1 RES1   0.0000
    57 H57     -9.7144  -1.0689 -11.7247   H         1 RES1   0.0000
    58 C58     -6.8532  -2.3192 -10.4361   C.ar      1 RES1   0.0000
    59 H59     -6.1761  -2.1653  -9.6024   H         1 RES1   0.0000
    60 C60     -7.4718  -3.5002 -12.4137   C.ar      1 RES1   0.0000
    61 H61     -7.2864  -4.2789 -13.1460   H         1 RES1   0.0000
    62 C62     -8.5897  -2.6934 -12.5436   C.ar      1 RES1   0.0000
    63 H63     -9.2711  -2.8440 -13.3742   H         1 RES1   0.0000
    64 C64     -7.9710  -1.5130 -10.5680   C.ar      1 RES1   0.0000
    65 H65     -8.1638  -0.7321  -9.8401   H         1 RES1   0.0000
@<TRIPOS>BOND
     1     1     5   ar
     2     1     6   ar
     3     1     2    1
     4     3     8   ar
     5     3     9   ar
     6     3     4    1
     7     5     9   ar
     8     5    11    1
     9     6     8   ar
    10     6     7    1
    11     8    12    1
    12     9    10    1
    13    11    20    2
    14    11    23    1
    15    13    14    1
    16    13    23   am
    17    13    24    1
    18    14    31    1
    19    14    34    1
    20    14    15    1
    21    16    24    1
    22    16    17    1
    23    16    18    1
    24    16    19    1
    25    20    21    1
    26    20    24    1
    27    21    40   ar
    28    21    45   ar
    29    22    23    2
    30    25    34    1
    31    25    37    1
    32    25    26    1
    33    25    27    1
    34    28    31    1
    35    28    37    1
    36    28    29    1
    37    28    30    1
    38    31    32    1
    39    31    33    1
    40    34    35    1
    41    34    36    1
    42    37    38    1
    43    37    39    1
    44    40    47   ar
    45    41    45   ar
    46    41    48   ar
    47    41    42    1
    48    43    47    1
    49    43    49    1
    50    43    44    1
    51    45    46    1
    52    47    48   ar
    53    49    51    1
    54    49    52    1
    55    49    50    1
    56    51    58   ar
    57    51    60   ar
    58    52    53    1
    59    52    54    1
    60    52    55    1
    61    56    62   ar
    62    56    64   ar
    63    56    57    1
    64    58    64   ar
    65    58    59    1
    66    60    62   ar
    67    60    61    1
    68    62    63    1
    69    64    65    1
@<TRIPOS>SUBSTRUCTURE
     1 RES1        1 GROUP             0 ****  ****    0  
@<TRIPOS>MOLECULE
LIGAND_00031
    65    69     1     0     0
SMALL
USER_CHARGES
****
Generated from the CSD

@<TRIPOS>ATOM
     1 C1      -0.4269  -3.4234 -14.9906   C.ar      1 RES1   0.0000
     2 H2      -1.5088  -3.4066 -14.9155   H         1 RES1   0.0000
     3 C3       2.3308  -3.4286 -15.1549   C.ar      1 RES1   0.0000
     4 H4       3.4141  -3.4207 -15.2142   H         1 RES1   0.0000
     5 C5       0.2591  -4.6053 -14.7269   C.ar      1 RES1   0.0000
     6 C6       0.2435  -2.2651 -15.3420   C.ar      1 RES1   0.0000
     7 H7      -0.3006  -1.3511 -15.5551   H         1 RES1   0.0000
     8 C8       1.6077  -2.2989 -15.4122   C.ar      1 RES1   0.0000
     9 C9       1.6479  -4.5830 -14.8182   C.ar      1 RES1   0.0000
    10 H10      2.2127  -5.4881 -14.6259   H         1 RES1   0.0000
    11 C11     -0.4530  -5.8668 -14.3415   C.2       1 RES1   0.0000
    12 F12      2.2739  -1.1620 -15.7518   F         1 RES1   0.0000
    13 N13     -1.3001  -7.9173 -14.1967   N.am      1 RES1   0.0000
    14 C14     -1.6530  -9.3641 -14.3937   C.3       1 RES1   0.0000
    15 H15     -1.1800  -9.7049 -15.3136   H         1 RES1   0.0000
    16 C16     -2.2983  -7.7935 -11.8803   C.3       1 RES1   0.0000
    17 H17     -2.8383  -7.0469 -11.3016   H         1 RES1   0.0000
    18 H18     -3.0003  -8.5750 -12.1635   H         1 RES1   0.0000
    19 H19     -1.5386  -8.2357 -11.2393   H         1 RES1   0.0000
    20 C20     -1.1594  -5.9688 -13.1688   C.2       1 RES1   0.0000
    21 C21     -1.4160  -4.9157 -12.1531   C.ar      1 RES1   0.0000
    22 O22     -0.0854  -7.5282 -16.0583   O.2       1 RES1   0.0000
    23 C23     -0.5518  -7.1283 -14.9996   C.2       1 RES1   0.0000
    24 N24     -1.6874  -7.1892 -13.0647   N.pl3     1 RES1   0.0000
    25 C25     -1.4398 -11.6809 -13.4378   C.3       1 RES1   0.0000
    26 H26     -1.0825 -12.2496 -12.5806   H         1 RES1   0.0000
    27 H27     -0.9521 -12.0423 -14.3420   H         1 RES1   0.0000
    28 C28     -3.4843 -11.0564 -14.6957   C.3       1 RES1   0.0000
    29 H29     -3.0587 -11.4115 -15.6330   H         1 RES1   0.0000
    30 H30     -4.5657 -11.1835 -14.7168   H         1 RES1   0.0000
    31 C31     -3.1584  -9.5801 -14.5270   C.3       1 RES1   0.0000
    32 H32     -3.5210  -9.0337 -15.3964   H         1 RES1   0.0000
    33 H33     -3.6524  -9.2063 -13.6314   H         1 RES1   0.0000
    34 C34     -1.1129 -10.2109 -13.2407   C.3       1 RES1   0.0000
    35 H35     -1.5612  -9.8693 -12.3089   H         1 RES1   0.0000
    36 H36     -0.0317 -10.0915 -13.1884   H         1 RES1   0.0000
    37 N37     -2.9193 -11.8541 -13.5678   N.4       1 RES1   1.0000
    38 H38     -3.3603 -11.5558 -12.7036   H         1 RES1   0.0000
    39 H39     -3.1204 -12.8358 -13.7290   H         1 RES1   0.0000
    40 N40     -0.8662  -5.0993 -10.9425   N.ar      1 RES1   0.0000
    41 C41     -2.3708  -2.8985 -11.3940   C.ar      1 RES1   0.0000
    42 H42     -2.9709  -2.0147 -11.5841   H         1 RES1   0.0000
    43 N43     -0.5809  -4.3597  -8.7908   N.pl3     1 RES1   0.0000
    44 H44     -0.0651  -5.2240  -8.6257   H         1 RES1   0.0000
    45 C45     -2.1938  -3.7996 -12.4246   C.ar      1 RES1   0.0000
    46 H46     -2.6438  -3.6432 -13.3994   H         1 RES1   0.0000
    47 C47     -1.1127  -4.1667 -10.0084   C.ar      1 RES1   0.0000
    48 N48     -1.8442  -3.0549 -10.1726   N.ar      1 RES1   0.0000
    49 C49     -0.7484  -3.4376  -7.6677   C.3       1 RES1   0.0000
    50 H50     -0.9162  -2.4247  -8.0653   H         1 RES1   0.0000
    51 C51      0.4660  -3.4050  -6.7607   C.ar      1 RES1   0.0000
    52 C52     -1.9907  -3.8685  -6.8970   C.3       1 RES1   0.0000
    53 H53     -2.1823  -3.1941  -6.0649   H         1 RES1   0.0000
    54 H54     -2.8668  -3.8678  -7.5422   H         1 RES1   0.0000
    55 H55     -1.8656  -4.8725  -6.4969   H         1 RES1   0.0000
    56 C56      2.7000  -3.3601  -5.0971   C.ar      1 RES1   0.0000
    57 H57      3.5705  -3.3422  -4.4497   H         1 RES1   0.0000
    58 C58      1.2265  -4.5483  -6.5619   C.ar      1 RES1   0.0000
    59 H59      0.9472  -5.4709  -7.0599   H         1 RES1   0.0000
    60 C60      0.8426  -2.2383  -6.1095   C.ar      1 RES1   0.0000
    61 H61      0.2623  -1.3322  -6.2482   H         1 RES1   0.0000
    62 C62      1.9535  -2.2174  -5.2832   C.ar      1 RES1   0.0000
    63 H63      2.2363  -1.2982  -4.7812   H         1 RES1   0.0000
    64 C64      2.3373  -4.5254  -5.7359   C.ar      1 RES1   0.0000
    65 H65      2.9231  -5.4271  -5.5917   H         1 RES1   0.0000
@<TRIPOS>BOND
     1     1     5   ar
     2     1     6   ar
     3     1     2    1
     4     3     8   ar
     5     3     9   ar
     6     3     4    1
     7     5     9   ar
     8     5    11    1
     9     6     8   ar
    10     6     7    1
    11     8    12    1
    12     9    10    1
    13    11    20    2
    14    11    23    1
    15    13    14    1
    16    13    23   am
    17    13    24    1
    18    14    31    1
    19    14    34    1
    20    14    15    1
    21    16    24    1
    22    16    17    1
    23    16    18    1
    24    16    19    1
    25    20    21    1
    26    20    24    1
    27    21    40   ar
    28    21    45   ar
    29    22    23    2
    30    25    34    1
    31    25    37    1
    32    25    26    1
    33    25    27    1
    34    28    31    1
    35    28    37    1
    36    28    29    1
    37    28    30    1
    38    31    32    1
    39    31    33    1
    40    34    35    1
    41    34    36    1
    42    37    38    1
    43    37    39    1
    44    40    47   ar
    45    41    45   ar
    46    41    48   ar
    47    41    42    1
    48    43    47    1
    49    43    49    1
    50    43    44    1
    51    45    46    1
    52    47    48   ar
    53    49    51    1
    54    49    52    1
    55    49    50    1
    56    51    58   ar
    57    51    60   ar
    58    52    53    1
    59    52    54    1
    60    52    55    1
    61    56    62   ar
    62    56    64   ar
    63    56    57    1
    64    58    64   ar
    65    58    59    1
    66    60    62   ar
    67    60    61    1
    68    62    63    1
    69    64    65    1
@<TRIPOS>SUBSTRUCTURE
     1 RES1        1 GROUP             0 ****  ****    0  
@<TRIPOS>MOLECULE
LIGAND_00032
    65    69     1     0     0
SMALL
USER_CHARGES
****
Generated from the CSD

@<TRIPOS>ATOM
     1 C1      -0.4268  -3.4234 -14.9906   C.ar      1 RES1   0.0000
     2 H2      -1.5088  -3.4066 -14.9154   H         1 RES1   0.0000
     3 C3       2.3308  -3.4287 -15.1549   C.ar      1 RES1   0.0000
     4 H4       3.4142  -3.4207 -15.2142   H         1 RES1   0.0000
     5 C5       0.2591  -4.6053 -14.7269   C.ar      1 RES1   0.0000
     6 C6       0.2435  -2.2651 -15.3419   C.ar      1 RES1   0.0000
     7 H7      -0.3006  -1.3511 -15.5551   H         1 RES1   0.0000
     8 C8       1.6077  -2.2990 -15.4122   C.ar      1 RES1   0.0000
     9 C9       1.6480  -4.5830 -14.8181   C.ar      1 RES1   0.0000
    10 H10      2.2127  -5.4881 -14.6259   H         1 RES1   0.0000
    11 C11     -0.4530  -5.8668 -14.3415   C.2       1 RES1   0.0000
    12 F12      2.2740  -1.1620 -15.7518   F         1 RES1   0.0000
    13 N13     -1.3001  -7.9173 -14.1967   N.am      1 RES1   0.0000
    14 C14     -1.6530  -9.3641 -14.3938   C.3       1 RES1   0.0000
    15 H15     -1.1801  -9.7049 -15.3136   H         1 RES1   0.0000
    16 C16     -2.2984  -7.7935 -11.8803   C.3       1 RES1   0.0000
    17 H17     -2.8384  -7.0469 -11.3016   H         1 RES1   0.0000
    18 H18     -3.0004  -8.5750 -12.1636   H         1 RES1   0.0000
    19 H19     -1.5386  -8.2357 -11.2393   H         1 RES1   0.0000
    20 C20     -1.1594  -5.9688 -13.1688   C.2       1 RES1   0.0000
    21 C21     -1.4160  -4.9157 -12.1531   C.ar      1 RES1   0.0000
    22 O22     -0.0854  -7.5283 -16.0583   O.2       1 RES1   0.0000
    23 C23     -0.5518  -7.1283 -14.9996   C.2       1 RES1   0.0000
    24 N24     -1.6874  -7.1892 -13.0647   N.pl3     1 RES1   0.0000
    25 C25     -1.4398 -11.6809 -13.4379   C.3       1 RES1   0.0000
    26 H26     -1.0826 -12.2496 -12.5806   H         1 RES1   0.0000
    27 H27     -0.9521 -12.0423 -14.3420   H         1 RES1   0.0000
    28 C28     -3.4843 -11.0563 -14.6957   C.3       1 RES1   0.0000
    29 H29     -3.0587 -11.4115 -15.6330   H         1 RES1   0.0000
    30 H30     -4.5657 -11.1834 -14.7168   H         1 RES1   0.0000
    31 C31     -3.1584  -9.5800 -14.5270   C.3       1 RES1   0.0000
    32 H32     -3.5210  -9.0337 -15.3964   H         1 RES1   0.0000
    33 H33     -3.6524  -9.2063 -13.6314   H         1 RES1   0.0000
    34 C34     -1.1129 -10.2109 -13.2407   C.3       1 RES1   0.0000
    35 H35     -1.5612  -9.8693 -12.3089   H         1 RES1   0.0000
    36 H36     -0.0317 -10.0915 -13.1885   H         1 RES1   0.0000
    37 N37     -2.9193 -11.8540 -13.5678   N.4       1 RES1   1.0000
    38 H38     -3.3603 -11.5558 -12.7036   H         1 RES1   0.0000
    39 H39     -3.1204 -12.8358 -13.7290   H         1 RES1   0.0000
    40 N40     -0.8662  -5.0993 -10.9425   N.ar      1 RES1   0.0000
    41 C41     -2.3708  -2.8985 -11.3940   C.ar      1 RES1   0.0000
    42 H42     -2.9709  -2.0147 -11.5841   H         1 RES1   0.0000
    43 N43     -0.5809  -4.3597  -8.7908   N.pl3     1 RES1   0.0000
    44 H44     -0.7193  -3.6336  -8.0879   H         1 RES1   0.0000
    45 C45     -2.1938  -3.7996 -12.4246   C.ar      1 RES1   0.0000
    46 H46     -2.6438  -3.6432 -13.3994   H         1 RES1   0.0000
    47 C47     -1.1127  -4.1667 -10.0084   C.ar      1 RES1   0.0000
    48 N48     -1.8442  -3.0549 -10.1726   N.ar      1 RES1   0.0000
    49 C49      0.2375  -5.5164  -8.4277   C.3       1 RES1   0.0000
    50 H50     -0.0443  -6.3637  -9.0718   H         1 RES1   0.0000
    51 C51      0.0487  -5.9266  -6.9805   C.ar      1 RES1   0.0000
    52 C52      1.6928  -5.1585  -8.7056   C.3       1 RES1   0.0000
    53 H53      2.3466  -5.9991  -8.4826   H         1 RES1   0.0000
    54 H54      1.8328  -4.8882  -9.7501   H         1 RES1   0.0000
    55 H55      2.0048  -4.3153  -8.0929   H         1 RES1   0.0000
    56 C56     -0.3004  -6.6654  -4.3173   C.ar      1 RES1   0.0000
    57 H57     -0.4371  -6.9534  -3.2802   H         1 RES1   0.0000
    58 C58     -0.2059  -4.9721  -6.0062   C.ar      1 RES1   0.0000
    59 H59     -0.2692  -3.9254  -6.2851   H         1 RES1   0.0000
    60 C60      0.1280  -7.2584  -6.5972   C.ar      1 RES1   0.0000
    61 H61      0.3279  -8.0224  -7.3411   H         1 RES1   0.0000
    62 C62     -0.0461  -7.6242  -5.2731   C.ar      1 RES1   0.0000
    63 H63      0.0179  -8.6691  -4.9883   H         1 RES1   0.0000
    64 C64     -0.3805  -5.3397  -4.6829   C.ar      1 RES1   0.0000
    65 H65     -0.5807  -4.5820  -3.9327   H         1 RES1   0.0000
@<TRIPOS>BOND
     1     1     5   ar
     2     1     6   ar
     3     1     2    1
     4     3     8   ar
     5     3     9   ar
     6     3     4    1
     7     5     9   ar
     8     5    11    1
     9     6     8   ar
    10     6     7    1
    11     8    12    1
    12     9    10    1
    13    11    20    2
    14    11    23    1
    15    13    14    1
    16    13    23   am
    17    13    24    1
    18    14    31    1
    19    14    34    1
    20    14    15    1
    21    16    24    1
    22    16    17    1
    23    16    18    1
    24    16    19    1
    25    20    21    1
    26    20    24    1
    27    21    40   ar
    28    21    45   ar
    29    22    23    2
    30    25    34    1
    31    25    37    1
    32    25    26    1
    33    25    27    1
    34    28    31    1
    35    28    37    1
    36    28    29    1
    37    28    30    1
    38    31    32    1
    39    31    33    1
    40    34    35    1
    41    34    36    1
    42    37    38    1
    43    37    39    1
    44    40    47   ar
    45    41    45   ar
    46    41    48   ar
    47    41    42    1
    48    43    47    1
    49    43    49    1
    50    43    44    1
    51    45    46    1
    52    47    48   ar
    53    49    51    1
    54    49    52    1
    55    49    50    1
    56    51    58   ar
    57    51    60   ar
    58    52    53    1
    59    52    54    1
    60    52    55    1
    61    56    62   ar
    62    56    64   ar
    63    56    57    1
    64    58    64   ar
    65    58    59    1
    66    60    62   ar
    67    60    61    1
    68    62    63    1
    69    64    65    1
@<TRIPOS>SUBSTRUCTURE
     1 RES1        1 GROUP             0 ****  ****    0  
@<TRIPOS>MOLECULE
LIGAND_00033
    65    69     1     0     0
SMALL
USER_CHARGES
****
Generated from the CSD

@<TRIPOS>ATOM
     1 C1      -0.7653  -3.8364 -15.9785   C.ar      1 RES1   0.0000
     2 H2      -1.6377  -4.2796 -16.4464   H         1 RES1   0.0000
     3 C3       1.4332  -2.6677 -14.7816   C.ar      1 RES1   0.0000
     4 H4       2.2914  -2.1987 -14.3118   H         1 RES1   0.0000
     5 C5      -0.1367  -4.5042 -14.9317   C.ar      1 RES1   0.0000
     6 C6      -0.3037  -2.6136 -16.4327   C.ar      1 RES1   0.0000
     7 H7      -0.7946  -2.1052 -17.2557   H         1 RES1   0.0000
     8 C8       0.7843  -2.0602 -15.8184   C.ar      1 RES1   0.0000
     9 C9       0.9701  -3.8958 -14.3463   C.ar      1 RES1   0.0000
    10 H10      1.4873  -4.3922 -13.5331   H         1 RES1   0.0000
    11 C11     -0.6274  -5.8274 -14.4264   C.2       1 RES1   0.0000
    12 F12      1.2404  -0.8551 -16.2562   F         1 RES1   0.0000
    13 N13     -1.1812  -7.9591 -14.1232   N.am      1 RES1   0.0000
    14 C14     -1.3694  -9.4451 -14.2382   C.3       1 RES1   0.0000
    15 H15     -0.9784  -9.7614 -15.2040   H         1 RES1   0.0000
    16 C16     -1.8829  -7.8670 -11.6990   C.3       1 RES1   0.0000
    17 H17     -2.4352  -7.1702 -11.0719   H         1 RES1   0.0000
    18 H18     -2.5101  -8.7397 -11.8690   H         1 RES1   0.0000
    19 H19     -0.9975  -8.1865 -11.1535   H         1 RES1   0.0000
    20 C20     -1.1594  -5.9688 -13.1688   C.2       1 RES1   0.0000
    21 C21     -1.4160  -4.9157 -12.1531   C.ar      1 RES1   0.0000
    22 O22     -0.2738  -7.4980 -16.1373   O.2       1 RES1   0.0000
    23 C23     -0.6482  -7.1166 -15.0361   C.2       1 RES1   0.0000
    24 N24     -1.5102  -7.2398 -12.9675   N.pl3     1 RES1   0.0000
    25 C25     -0.7430 -11.6781 -13.2646   C.3       1 RES1   0.0000
    26 H26     -0.2098 -12.1639 -12.4487   H         1 RES1   0.0000
    27 H27     -0.3328 -12.0125 -14.2163   H         1 RES1   0.0000
    28 C28     -2.9941 -11.3605 -14.2565   C.3       1 RES1   0.0000
    29 H29     -2.6500 -11.6976 -15.2332   H         1 RES1   0.0000
    30 H30     -4.0443 -11.6205 -14.1321   H         1 RES1   0.0000
    31 C31     -2.8397  -9.8498 -14.1669   C.3       1 RES1   0.0000
    32 H32     -3.3769  -9.3872 -14.9936   H         1 RES1   0.0000
    33 H33     -3.2589  -9.5043 -13.2230   H         1 RES1   0.0000
    34 C34     -0.5833 -10.1724 -13.1467   C.3       1 RES1   0.0000
    35 H35     -0.9488  -9.8517 -12.1723   H         1 RES1   0.0000
    36 H36      0.4717  -9.9188 -13.2401   H         1 RES1   0.0000
    37 N37     -2.1928 -12.0371 -13.1945   N.4       1 RES1   1.0000
    38 H38     -2.5542 -11.7612 -12.2870   H         1 RES1   0.0000
    39 H39     -2.2864 -13.0417 -13.3048   H         1 RES1   0.0000
    40 N40     -2.6992  -4.6898 -11.8302   N.ar      1 RES1   0.0000
    41 C41     -0.7580  -3.2243 -10.6488   C.ar      1 RES1   0.0000
    42 H42      0.0265  -2.6440 -10.1743   H         1 RES1   0.0000
    43 N43     -4.2293  -3.4806 -10.6241   N.pl3     1 RES1   0.0000
    44 H44     -4.9477  -4.0049 -11.1234   H         1 RES1   0.0000
    45 C45     -0.3913  -4.1856 -11.5689   C.ar      1 RES1   0.0000
    46 H46      0.6486  -4.3597 -11.8246   H         1 RES1   0.0000
    47 C47     -2.9451  -3.7222 -10.9322   C.ar      1 RES1   0.0000
    48 N48     -2.0280  -2.9671 -10.3100   N.ar      1 RES1   0.0000
    49 C49     -4.6650  -2.4680  -9.6625   C.3       1 RES1   0.0000
    50 H50     -3.8604  -2.3105  -8.9277   H         1 RES1   0.0000
    51 C51     -5.9222  -2.8781  -8.9212   C.ar      1 RES1   0.0000
    52 C52     -4.8849  -1.1683 -10.4277   C.3       1 RES1   0.0000
    53 H53     -5.1805  -0.3680  -9.7525   H         1 RES1   0.0000
    54 H54     -3.9752  -0.8611 -10.9394   H         1 RES1   0.0000
    55 H55     -5.6683  -1.2890 -11.1729   H         1 RES1   0.0000
    56 C56     -8.2374  -3.6391  -7.5716   C.ar      1 RES1   0.0000
    57 H57     -9.1387  -3.9361  -7.0456   H         1 RES1   0.0000
    58 C58     -6.8926  -3.6436  -9.5516   C.ar      1 RES1   0.0000
    59 H59     -6.7480  -3.9490 -10.5827   H         1 RES1   0.0000
    60 C60     -6.1326  -2.4979  -7.6028   C.ar      1 RES1   0.0000
    61 H61     -5.3887  -1.8977  -7.0896   H         1 RES1   0.0000
    62 C62     -7.2837  -2.8772  -6.9332   C.ar      1 RES1   0.0000
    63 H63     -7.4344  -2.5733  -5.9027   H         1 RES1   0.0000
    64 C64     -8.0426  -4.0226  -8.8802   C.ar      1 RES1   0.0000
    65 H65     -8.7915  -4.6228  -9.3861   H         1 RES1   0.0000
@<TRIPOS>BOND
     1     1     5   ar
     2     1     6   ar
     3     1     2    1
     4     3     8   ar
     5     3     9   ar
     6     3     4    1
     7     5     9   ar
     8     5    11    1
     9     6     8   ar
    10     6     7    1
    11     8    12    1
    12     9    10    1
    13    11    20    2
    14    11    23    1
    15    13    14    1
    16    13    23   am
    17    13    24    1
    18    14    31    1
    19    14    34    1
    20    14    15    1
    21    16    24    1
    22    16    17    1
    23    16    18    1
    24    16    19    1
    25    20    21    1
    26    20    24    1
    27    21    40   ar
    28    21    45   ar
    29    22    23    2
    30    25    34    1
    31    25    37    1
    32    25    26    1
    33    25    27    1
    34    28    31    1
    35    28    37    1
    36    28    29    1
    37    28    30    1
    38    31    32    1
    39    31    33    1
    40    34    35    1
    41    34    36    1
    42    37    38    1
    43    37    39    1
    44    40    47   ar
    45    41    45   ar
    46    41    48   ar
    47    41    42    1
    48    43    47    1
    49    43    49    1
    50    43    44    1
    51    45    46    1
    52    47    48   ar
    53    49    51    1
    54    49    52    1
    55    49    50    1
    56    51    58   ar
    57    51    60   ar
    58    52    53    1
    59    52    54    1
    60    52    55    1
    61    56    62   ar
    62    56    64   ar
    63    56    57    1
    64    58    64   ar
    65    58    59    1
    66    60    62   ar
    67    60    61    1
    68    62    63    1
    69    64    65    1
@<TRIPOS>SUBSTRUCTURE
     1 RES1        1 GROUP             0 ****  ****    0  
@<TRIPOS>MOLECULE
LIGAND_00034
    65    69     1     0     0
SMALL
USER_CHARGES
****
Generated from the CSD

@<TRIPOS>ATOM
     1 C1      -0.7652  -3.8364 -15.9785   C.ar      1 RES1   0.0000
     2 H2      -1.6376  -4.2796 -16.4465   H         1 RES1   0.0000
     3 C3       1.4332  -2.6677 -14.7816   C.ar      1 RES1   0.0000
     4 H4       2.2915  -2.1988 -14.3118   H         1 RES1   0.0000
     5 C5      -0.1367  -4.5042 -14.9317   C.ar      1 RES1   0.0000
     6 C6      -0.3036  -2.6136 -16.4326   C.ar      1 RES1   0.0000
     7 H7      -0.7945  -2.1052 -17.2557   H         1 RES1   0.0000
     8 C8       0.7843  -2.0602 -15.8184   C.ar      1 RES1   0.0000
     9 C9       0.9701  -3.8958 -14.3463   C.ar      1 RES1   0.0000
    10 H10      1.4873  -4.3922 -13.5331   H         1 RES1   0.0000
    11 C11     -0.6274  -5.8274 -14.4264   C.2       1 RES1   0.0000
    12 F12      1.2405  -0.8551 -16.2562   F         1 RES1   0.0000
    13 N13     -1.1812  -7.9591 -14.1232   N.am      1 RES1   0.0000
    14 C14     -1.3695  -9.4450 -14.2382   C.3       1 RES1   0.0000
    15 H15     -0.9784  -9.7614 -15.2040   H         1 RES1   0.0000
    16 C16     -1.8829  -7.8670 -11.6991   C.3       1 RES1   0.0000
    17 H17     -2.4352  -7.1702 -11.0719   H         1 RES1   0.0000
    18 H18     -2.5102  -8.7397 -11.8690   H         1 RES1   0.0000
    19 H19     -0.9975  -8.1865 -11.1535   H         1 RES1   0.0000
    20 C20     -1.1594  -5.9688 -13.1688   C.2       1 RES1   0.0000
    21 C21     -1.4160  -4.9157 -12.1531   C.ar      1 RES1   0.0000
    22 O22     -0.2738  -7.4980 -16.1373   O.2       1 RES1   0.0000
    23 C23     -0.6481  -7.1166 -15.0361   C.2       1 RES1   0.0000
    24 N24     -1.5102  -7.2398 -12.9675   N.pl3     1 RES1   0.0000
    25 C25     -0.7431 -11.6781 -13.2646   C.3       1 RES1   0.0000
    26 H26     -0.2099 -12.1639 -12.4487   H         1 RES1   0.0000
    27 H27     -0.3328 -12.0125 -14.2163   H         1 RES1   0.0000
    28 C28     -2.9941 -11.3605 -14.2565   C.3       1 RES1   0.0000
    29 H29     -2.6500 -11.6976 -15.2332   H         1 RES1   0.0000
    30 H30     -4.0443 -11.6205 -14.1321   H         1 RES1   0.0000
    31 C31     -2.8398  -9.8498 -14.1669   C.3       1 RES1   0.0000
    32 H32     -3.3769  -9.3872 -14.9936   H         1 RES1   0.0000
    33 H33     -3.2589  -9.5043 -13.2231   H         1 RES1   0.0000
    34 C34     -0.5833 -10.1724 -13.1467   C.3       1 RES1   0.0000
    35 H35     -0.9488  -9.8517 -12.1723   H         1 RES1   0.0000
    36 H36      0.4716  -9.9188 -13.2401   H         1 RES1   0.0000
    37 N37     -2.1929 -12.0371 -13.1945   N.4       1 RES1   1.0000
    38 H38     -2.5542 -11.7612 -12.2870   H         1 RES1   0.0000
    39 H39     -2.2864 -13.0417 -13.3048   H         1 RES1   0.0000
    40 N40     -2.6992  -4.6898 -11.8302   N.ar      1 RES1   0.0000
    41 C41     -0.7580  -3.2243 -10.6488   C.ar      1 RES1   0.0000
    42 H42      0.0265  -2.6440 -10.1743   H         1 RES1   0.0000
    43 N43     -4.2293  -3.4806 -10.6241   N.pl3     1 RES1   0.0000
    44 H44     -4.4258  -2.7830  -9.9063   H         1 RES1   0.0000
    45 C45     -0.3913  -4.1856 -11.5689   C.ar      1 RES1   0.0000
    46 H46      0.6486  -4.3597 -11.8246   H         1 RES1   0.0000
    47 C47     -2.9451  -3.7222 -10.9322   C.ar      1 RES1   0.0000
    48 N48     -2.0280  -2.9671 -10.3100   N.ar      1 RES1   0.0000
    49 C49     -5.3616  -4.1996 -11.2077   C.3       1 RES1   0.0000
    50 H50     -5.0698  -4.5679 -12.2034   H         1 RES1   0.0000
    51 C51     -6.5882  -3.3215 -11.3583   C.ar      1 RES1   0.0000
    52 C52     -5.6580  -5.3985 -10.3144   C.3       1 RES1   0.0000
    53 H53     -6.4753  -5.9904 -10.7210   H         1 RES1   0.0000
    54 H54     -4.7849  -6.0417 -10.2267   H         1 RES1   0.0000
    55 H55     -5.9404  -5.0728  -9.3155   H         1 RES1   0.0000
    56 C56     -8.8381  -1.7001 -11.6221   C.ar      1 RES1   0.0000
    57 H57     -9.7140  -1.0683 -11.7254   H         1 RES1   0.0000
    58 C58     -6.8531  -2.3189 -10.4365   C.ar      1 RES1   0.0000
    59 H59     -6.1760  -2.1650  -9.6028   H         1 RES1   0.0000
    60 C60     -7.4717  -3.4998 -12.4140   C.ar      1 RES1   0.0000
    61 H61     -7.2863  -4.2786 -13.1463   H         1 RES1   0.0000
    62 C62     -8.5894  -2.6929 -12.5441   C.ar      1 RES1   0.0000
    63 H63     -9.2708  -2.8435 -13.3747   H         1 RES1   0.0000
    64 C64     -7.9707  -1.5125 -10.5685   C.ar      1 RES1   0.0000
    65 H65     -8.1635  -0.7315  -9.8406   H         1 RES1   0.0000
@<TRIPOS>BOND
     1     1     5   ar
     2     1     6   ar
     3     1     2    1
     4     3     8   ar
     5     3     9   ar
     6     3     4    1
     7     5     9   ar
     8     5    11    1
     9     6     8   ar
    10     6     7    1
    11     8    12    1
    12     9    10    1
    13    11    20    2
    14    11    23    1
    15    13    14    1
    16    13    23   am
    17    13    24    1
    18    14    31    1
    19    14    34    1
    20    14    15    1
    21    16    24    1
    22    16    17    1
    23    16    18    1
    24    16    19    1
    25    20    21    1
    26    20    24    1
    27    21    40   ar
    28    21    45   ar
    29    22    23    2
    30    25    34    1
    31    25    37    1
    32    25    26    1
    33    25    27    1
    34    28    31    1
    35    28    37    1
    36    28    29    1
    37    28    30    1
    38    31    32    1
    39    31    33    1
    40    34    35    1
    41    34    36    1
    42    37    38    1
    43    37    39    1
    44    40    47   ar
    45    41    45   ar
    46    41    48   ar
    47    41    42    1
    48    43    47    1
    49    43    49    1
    50    43    44    1
    51    45    46    1
    52    47    48   ar
    53    49    51    1
    54    49    52    1
    55    49    50    1
    56    51    58   ar
    57    51    60   ar
    58    52    53    1
    59    52    54    1
    60    52    55    1
    61    56    62   ar
    62    56    64   ar
    63    56    57    1
    64    58    64   ar
    65    58    59    1
    66    60    62   ar
    67    60    61    1
    68    62    63    1
    69    64    65    1
@<TRIPOS>SUBSTRUCTURE
     1 RES1        1 GROUP             0 ****  ****    0  
@<TRIPOS>MOLECULE
LIGAND_00035
    65    69     1     0     0
SMALL
USER_CHARGES
****
Generated from the CSD

@<TRIPOS>ATOM
     1 C1      -0.7792  -4.2653 -11.5470   C.ar      1 RES1   0.0000
     2 H2      -0.2102  -5.0508 -11.0616   H         1 RES1   0.0000
     3 C3      -2.1933  -2.2352 -12.7762   C.ar      1 RES1   0.0000
     4 H4      -2.7408  -1.4305 -13.2557   H         1 RES1   0.0000
     5 C5      -1.3423  -4.5013 -12.7977   C.ar      1 RES1   0.0000
     6 C6      -0.9252  -3.0455 -10.9105   C.ar      1 RES1   0.0000
     7 H7      -0.4907  -2.8742  -9.9313   H         1 RES1   0.0000
     8 C8      -1.6280  -2.0605 -11.5453   C.ar      1 RES1   0.0000
     9 C9      -2.0517  -3.4634 -13.3956   C.ar      1 RES1   0.0000
    10 H10     -2.5089  -3.6160 -14.3665   H         1 RES1   0.0000
    11 C11     -1.1895  -5.8161 -13.5012   C.2       1 RES1   0.0000
    12 F12     -1.7709  -0.8564 -10.9276   F         1 RES1   0.0000
    13 N13     -1.2239  -7.9434 -14.1466   N.am      1 RES1   0.0000
    14 C14     -1.4714  -9.4183 -14.2873   C.3       1 RES1   0.0000
    15 H15     -1.0389  -9.7448 -15.2319   H         1 RES1   0.0000
    16 C16     -0.2697  -7.6895 -16.4709   C.3       1 RES1   0.0000
    17 H17     -0.3573  -6.8990 -17.2134   H         1 RES1   0.0000
    18 H18      0.7465  -8.0768 -16.5072   H         1 RES1   0.0000
    19 H19     -0.9491  -8.4927 -16.7482   H         1 RES1   0.0000
    20 C20     -0.5870  -5.9122 -14.7311   C.2       1 RES1   0.0000
    21 C21      0.0604  -4.8376 -15.5265   C.ar      1 RES1   0.0000
    22 O22     -2.1761  -7.5518 -12.1384   O.2       1 RES1   0.0000
    23 C23     -1.5948  -7.1324 -13.1307   C.2       1 RES1   0.0000
    24 N24     -0.5856  -7.1834 -15.1348   N.pl3     1 RES1   0.0000
    25 C25     -1.0037 -11.6847 -13.3017   C.3       1 RES1   0.0000
    26 H26     -0.5415 -12.2003 -12.4611   H         1 RES1   0.0000
    27 H27     -0.5537 -12.0301 -14.2313   H         1 RES1   0.0000
    28 C28     -3.1763 -11.2581 -14.4197   C.3       1 RES1   0.0000
    29 H29     -2.7909 -11.6031 -15.3781   H         1 RES1   0.0000
    30 H30     -4.2425 -11.4711 -14.3593   H         1 RES1   0.0000
    31 C31     -2.9599  -9.7566 -14.3059   C.3       1 RES1   0.0000
    32 H32     -3.4265  -9.2640 -15.1577   H         1 RES1   0.0000
    33 H33     -3.4178  -9.3996 -13.3846   H         1 RES1   0.0000
    34 C34     -0.7839 -10.1887 -13.1594   C.3       1 RES1   0.0000
    35 H35     -1.1912  -9.8592 -12.2047   H         1 RES1   0.0000
    36 H36      0.2850  -9.9825 -13.1886   H         1 RES1   0.0000
    37 N37     -2.4697 -11.9782 -13.3198   N.4       1 RES1   1.0000
    38 H38     -2.8710 -11.6931 -12.4321   H         1 RES1   0.0000
    39 H39     -2.6015 -12.9767 -13.4455   H         1 RES1   0.0000
    40 N40     -0.4745  -4.5722 -16.7286   N.ar      1 RES1   0.0000
    41 C41      1.6905  -3.1773 -15.9048   C.ar      1 RES1   0.0000
    42 H42      2.5557  -2.6175 -15.5653   H         1 RES1   0.0000
    43 N43     -0.4029  -3.3687 -18.6792   N.pl3     1 RES1   0.0000
    44 H44      0.0097  -2.6160 -19.2301   H         1 RES1   0.0000
    45 C45      1.1705  -4.1438 -15.0676   C.ar      1 RES1   0.0000
    46 H46      1.6110  -4.3522 -14.0982   H         1 RES1   0.0000
    47 C47      0.1180  -3.6205 -17.4677   C.ar      1 RES1   0.0000
    48 N48      1.1874  -2.8931 -17.1131   N.ar      1 RES1   0.0000
    49 C49     -1.5649  -4.0639 -19.2324   C.3       1 RES1   0.0000
    50 H50     -2.2446  -4.3263 -18.4069   H         1 RES1   0.0000
    51 C51     -1.1830  -5.3347 -19.9656   C.ar      1 RES1   0.0000
    52 C52     -2.2836  -3.0945 -20.1634   C.3       1 RES1   0.0000
    53 H53     -3.1789  -3.5512 -20.5801   H         1 RES1   0.0000
    54 H54     -2.5797  -2.1931 -19.6309   H         1 RES1   0.0000
    55 H55     -1.6369  -2.8034 -20.9885   H         1 RES1   0.0000
    56 C56     -0.4725  -7.6615 -21.3227   C.ar      1 RES1   0.0000
    57 H57     -0.1952  -8.5678 -21.8507   H         1 RES1   0.0000
    58 C58     -0.3323  -5.2865 -21.0606   C.ar      1 RES1   0.0000
    59 H59      0.0604  -4.3310 -21.3924   H         1 RES1   0.0000
    60 C60     -1.6741  -6.5691 -19.5632   C.ar      1 RES1   0.0000
    61 H61     -2.3424  -6.6315 -18.7107   H         1 RES1   0.0000
    62 C62     -1.3198  -7.7248 -20.2385   C.ar      1 RES1   0.0000
    63 H63     -1.7109  -8.6828 -19.9122   H         1 RES1   0.0000
    64 C64      0.0215  -6.4432 -21.7342   C.ar      1 RES1   0.0000
    65 H65      0.6892  -6.3896 -22.5876   H         1 RES1   0.0000
@<TRIPOS>BOND
     1     1     5   ar
     2     1     6   ar
     3     1     2    1
     4     3     8   ar
     5     3     9   ar
     6     3     4    1
     7     5     9   ar
     8     5    11    1
     9     6     8   ar
    10     6     7    1
    11     8    12    1
    12     9    10    1
    13    11    20    2
    14    11    23    1
    15    13    14    1
    16    13    23   am
    17    13    24    1
    18    14    31    1
    19    14    34    1
    20    14    15    1
    21    16    24    1
    22    16    17    1
    23    16    18    1
    24    16    19    1
    25    20    21    1
    26    20    24    1
    27    21    40   ar
    28    21    45   ar
    29    22    23    2
    30    25    34    1
    31    25    37    1
    32    25    26    1
    33    25    27    1
    34    28    31    1
    35    28    37    1
    36    28    29    1
    37    28    30    1
    38    31    32    1
    39    31    33    1
    40    34    35    1
    41    34    36    1
    42    37    38    1
    43    37    39    1
    44    40    47   ar
    45    41    45   ar
    46    41    48   ar
    47    41    42    1
    48    43    47    1
    49    43    49    1
    50    43    44    1
    51    45    46    1
    52    47    48   ar
    53    49    51    1
    54    49    52    1
    55    49    50    1
    56    51    58   ar
    57    51    60   ar
    58    52    53    1
    59    52    54    1
    60    52    55    1
    61    56    62   ar
    62    56    64   ar
    63    56    57    1
    64    58    64   ar
    65    58    59    1
    66    60    62   ar
    67    60    61    1
    68    62    63    1
    69    64    65    1
@<TRIPOS>SUBSTRUCTURE
     1 RES1        1 GROUP             0 ****  ****    0  
@<TRIPOS>MOLECULE
LIGAND_00036
    65    69     1     0     0
SMALL
USER_CHARGES
****
Generated from the CSD

@<TRIPOS>ATOM
     1 C1      -0.1734  -3.7512 -12.4311   C.ar      1 RES1   0.0000
     2 H2       0.8163  -4.1080 -12.6950   H         1 RES1   0.0000
     3 C3      -2.6840  -2.8012 -11.7784   C.ar      1 RES1   0.0000
     4 H4      -3.6669  -2.4178 -11.5253   H         1 RES1   0.0000
     5 C5      -1.2881  -4.5128 -12.7691   C.ar      1 RES1   0.0000
     6 C6      -0.3010  -2.5429 -11.7691   C.ar      1 RES1   0.0000
     7 H7       0.5745  -1.9608 -11.5013   H         1 RES1   0.0000
     8 C8      -1.5563  -2.0986 -11.4624   C.ar      1 RES1   0.0000
     9 C9      -2.5420  -4.0138 -12.4278   C.ar      1 RES1   0.0000
    10 H10     -3.4308  -4.5851 -12.6702   H         1 RES1   0.0000
    11 C11     -1.1659  -5.8217 -13.4895   C.2       1 RES1   0.0000
    12 F12     -1.6896  -0.9084 -10.8162   F         1 RES1   0.0000
    13 N13     -1.2406  -7.9410 -14.1570   N.am      1 RES1   0.0000
    14 C14     -1.5106  -9.4109 -14.3092   C.3       1 RES1   0.0000
    15 H15     -1.1035  -9.7318 -15.2670   H         1 RES1   0.0000
    16 C16     -0.3252  -7.6743 -16.4955   C.3       1 RES1   0.0000
    17 H17     -0.2978  -6.8543 -17.2102   H         1 RES1   0.0000
    18 H18      0.6368  -8.1816 -16.5253   H         1 RES1   0.0000
    19 H19     -1.0903  -8.3784 -16.8158   H         1 RES1   0.0000
    20 C20     -0.5870  -5.9122 -14.7311   C.2       1 RES1   0.0000
    21 C21      0.0604  -4.8376 -15.5265   C.ar      1 RES1   0.0000
    22 O22     -2.1510  -7.5590 -12.1278   O.2       1 RES1   0.0000
    23 C23     -1.5821  -7.1365 -13.1259   C.2       1 RES1   0.0000
    24 N24     -0.6101  -7.1788 -15.1485   N.pl3     1 RES1   0.0000
    25 C25     -1.0509 -11.6946 -13.3605   C.3       1 RES1   0.0000
    26 H26     -0.5769 -12.2260 -12.5365   H         1 RES1   0.0000
    27 H27     -0.6263 -12.0348 -14.3038   H         1 RES1   0.0000
    28 C28     -3.2420 -11.2269 -14.4245   C.3       1 RES1   0.0000
    29 H29     -2.8826 -11.5654 -15.3952   H         1 RES1   0.0000
    30 H30     -4.3093 -11.4269 -14.3427   H         1 RES1   0.0000
    31 C31     -3.0035  -9.7297 -14.2983   C.3       1 RES1   0.0000
    32 H32     -3.4824  -9.2211 -15.1338   H         1 RES1   0.0000
    33 H33     -3.4360  -9.3778 -13.3629   H         1 RES1   0.0000
    34 C34     -0.8083 -10.2033 -13.2059   C.3       1 RES1   0.0000
    35 H35     -1.1899  -9.8799 -12.2386   H         1 RES1   0.0000
    36 H36      0.2623 -10.0106 -13.2567   H         1 RES1   0.0000
    37 N37     -2.5207 -11.9690 -13.3491   N.4       1 RES1   1.0000
    38 H38     -2.8983 -11.6892 -12.4494   H         1 RES1   0.0000
    39 H39     -2.6684 -12.9641 -13.4833   H         1 RES1   0.0000
    40 N40      1.3518  -5.0181 -15.8447   N.ar      1 RES1   0.0000
    41 C41      0.0944  -2.7605 -16.6407   C.ar      1 RES1   0.0000
    42 H42     -0.4181  -1.8597 -16.9618   H         1 RES1   0.0000
    43 N43      3.2523  -4.2108 -16.8421   N.pl3     1 RES1   0.0000
    44 H44      3.7084  -3.4977 -17.4109   H         1 RES1   0.0000
    45 C45     -0.6202  -3.6935 -15.9166   C.ar      1 RES1   0.0000
    46 H46     -1.6635  -3.5377 -15.6629   H         1 RES1   0.0000
    47 C47      1.9548  -4.0414 -16.5414   C.ar      1 RES1   0.0000
    48 N48      1.3851  -2.9047 -16.9677   N.ar      1 RES1   0.0000
    49 C49      4.0360  -5.3847 -16.4583   C.3       1 RES1   0.0000
    50 H50      3.3737  -6.2642 -16.4524   H         1 RES1   0.0000
    51 C51      4.6583  -5.2399 -15.0834   C.ar      1 RES1   0.0000
    52 C52      5.1088  -5.5920 -17.5211   C.3       1 RES1   0.0000
    53 H53      5.7041  -6.4759 -17.3017   H         1 RES1   0.0000
    54 H54      4.6607  -5.7209 -18.5041   H         1 RES1   0.0000
    55 H55      5.7780  -4.7353 -17.5636   H         1 RES1   0.0000
    56 C56      5.8094  -4.9611 -12.5620   C.ar      1 RES1   0.0000
    57 H57      6.2570  -4.8523 -11.5797   H         1 RES1   0.0000
    58 C58      5.5450  -4.2063 -14.8179   C.ar      1 RES1   0.0000
    59 H59      5.7934  -3.4986 -15.6019   H         1 RES1   0.0000
    60 C60      4.3596  -6.1336 -14.0642   C.ar      1 RES1   0.0000
    61 H61      3.6703  -6.9509 -14.2487   H         1 RES1   0.0000
    62 C62      4.9322  -5.9936 -12.8112   C.ar      1 RES1   0.0000
    63 H63      4.6889  -6.6994 -12.0240   H         1 RES1   0.0000
    64 C64      6.1161  -4.0674 -13.5643   C.ar      1 RES1   0.0000
    65 H65      6.8064  -3.2530 -13.3714   H         1 RES1   0.0000
@<TRIPOS>BOND
     1     1     5   ar
     2     1     6   ar
     3     1     2    1
     4     3     8   ar
     5     3     9   ar
     6     3     4    1
     7     5     9   ar
     8     5    11    1
     9     6     8   ar
    10     6     7    1
    11     8    12    1
    12     9    10    1
    13    11    20    2
    14    11    23    1
    15    13    14    1
    16    13    23   am
    17    13    24    1
    18    14    31    1
    19    14    34    1
    20    14    15    1
    21    16    24    1
    22    16    17    1
    23    16    18    1
    24    16    19    1
    25    20    21    1
    26    20    24    1
    27    21    40   ar
    28    21    45   ar
    29    22    23    2
    30    25    34    1
    31    25    37    1
    32    25    26    1
    33    25    27    1
    34    28    31    1
    35    28    37    1
    36    28    29    1
    37    28    30    1
    38    31    32    1
    39    31    33    1
    40    34    35    1
    41    34    36    1
    42    37    38    1
    43    37    39    1
    44    40    47   ar
    45    41    45   ar
    46    41    48   ar
    47    41    42    1
    48    43    47    1
    49    43    49    1
    50    43    44    1
    51    45    46    1
    52    47    48   ar
    53    49    51    1
    54    49    52    1
    55    49    50    1
    56    51    58   ar
    57    51    60   ar
    58    52    53    1
    59    52    54    1
    60    52    55    1
    61    56    62   ar
    62    56    64   ar
    63    56    57    1
    64    58    64   ar
    65    58    59    1
    66    60    62   ar
    67    60    61    1
    68    62    63    1
    69    64    65    1
@<TRIPOS>SUBSTRUCTURE
     1 RES1        1 GROUP             0 ****  ****    0  
@<TRIPOS>MOLECULE
LIGAND_00037
    65    69     1     0     0
SMALL
USER_CHARGES
****
Generated from the CSD

@<TRIPOS>ATOM
     1 C1      -0.4438  -3.6866 -12.4159   C.ar      1 RES1   0.0000
     2 H2       0.5769  -4.0365 -12.5258   H         1 RES1   0.0000
     3 C3      -3.0314  -2.7548 -12.1550   C.ar      1 RES1   0.0000
     4 H4      -4.0442  -2.3786 -12.0557   H         1 RES1   0.0000
     5 C5      -1.4914  -4.4747 -12.8831   C.ar      1 RES1   0.0000
     6 C6      -0.6765  -2.4608 -11.8179   C.ar      1 RES1   0.0000
     7 H7       0.1461  -1.8578 -11.4480   H         1 RES1   0.0000
     8 C8      -1.9672  -2.0262 -11.7058   C.ar      1 RES1   0.0000
     9 C9      -2.7862  -3.9843 -12.7385   C.ar      1 RES1   0.0000
    10 H10     -3.6257  -4.5760 -13.0854   H         1 RES1   0.0000
    11 C11     -1.2548  -5.8030 -13.5365   C.2       1 RES1   0.0000
    12 F12     -2.2031  -0.8190 -11.1236   F         1 RES1   0.0000
    13 N13     -1.1780  -7.9481 -14.1156   N.am      1 RES1   0.0000
    14 C14     -1.3638  -9.4349 -14.2222   C.3       1 RES1   0.0000
    15 H15     -0.8754  -9.7718 -15.1354   H         1 RES1   0.0000
    16 C16     -0.1161  -7.7267 -16.3962   C.3       1 RES1   0.0000
    17 H17      0.4811  -6.9996 -16.9426   H         1 RES1   0.0000
    18 H18      0.4771  -8.6310 -16.2772   H         1 RES1   0.0000
    19 H19     -0.9891  -7.9702 -16.9981   H         1 RES1   0.0000
    20 C20     -0.5870  -5.9122 -14.7311   C.2       1 RES1   0.0000
    21 C21      0.0604  -4.8376 -15.5265   C.ar      1 RES1   0.0000
    22 O22     -2.2454  -7.5340 -12.1709   O.2       1 RES1   0.0000
    23 C23     -1.6299  -7.1222 -13.1456   C.2       1 RES1   0.0000
    24 N24     -0.5184  -7.1938 -15.0941   N.pl3     1 RES1   0.0000
    25 C25     -0.8594 -11.6521 -13.1468   C.3       1 RES1   0.0000
    26 H26     -0.4185 -12.1249 -12.2704   H         1 RES1   0.0000
    27 H27     -0.3536 -12.0068 -14.0436   H         1 RES1   0.0000
    28 C28     -2.9911 -11.3420 -14.3762   C.3       1 RES1   0.0000
    29 H29     -2.5485 -11.6995 -15.3047   H         1 RES1   0.0000
    30 H30     -4.0504 -11.5941 -14.3584   H         1 RES1   0.0000
    31 C31     -2.8362  -9.8306 -14.2989   C.3       1 RES1   0.0000
    32 H32     -3.2800  -9.3812 -15.1860   H         1 RES1   0.0000
    33 H33     -3.3500  -9.4649 -13.4110   H         1 RES1   0.0000
    34 C34     -0.7021 -10.1452 -13.0406   C.3       1 RES1   0.0000
    35 H35     -1.1659  -9.8040 -12.1162   H         1 RES1   0.0000
    36 H36      0.3586  -9.8990 -13.0269   H         1 RES1   0.0000
    37 N37     -2.3110 -12.0021 -13.2233   N.4       1 RES1   1.0000
    38 H38     -2.7640 -11.7071 -12.3642   H         1 RES1   0.0000
    39 H39     -2.3997 -13.0082 -13.3242   H         1 RES1   0.0000
    40 N40     -0.4745  -4.5722 -16.7286   N.ar      1 RES1   0.0000
    41 C41      1.6905  -3.1773 -15.9048   C.ar      1 RES1   0.0000
    42 H42      2.5557  -2.6175 -15.5653   H         1 RES1   0.0000
    43 N43     -0.4029  -3.3687 -18.6792   N.pl3     1 RES1   0.0000
    44 H44     -1.1871  -3.9415 -18.9911   H         1 RES1   0.0000
    45 C45      1.1705  -4.1438 -15.0676   C.ar      1 RES1   0.0000
    46 H46      1.6110  -4.3522 -14.0982   H         1 RES1   0.0000
    47 C47      0.1180  -3.6205 -17.4677   C.ar      1 RES1   0.0000
    48 N48      1.1874  -2.8931 -17.1131   N.ar      1 RES1   0.0000
    49 C49      0.1236  -2.3667 -19.6056   C.3       1 RES1   0.0000
    50 H50      1.2151  -2.3051 -19.4752   H         1 RES1   0.0000
    51 C51     -0.4693  -0.9917 -19.3679   C.ar      1 RES1   0.0000
    52 C52     -0.1696  -2.8473 -21.0221   C.3       1 RES1   0.0000
    53 H53      0.2311  -2.1518 -21.7566   H         1 RES1   0.0000
    54 H54      0.2772  -3.8231 -21.2005   H         1 RES1   0.0000
    55 H55     -1.2420  -2.9310 -21.1851   H         1 RES1   0.0000
    56 C56     -1.5728   1.5290 -18.9339   C.ar      1 RES1   0.0000
    57 H57     -2.0026   2.5107 -18.7641   H         1 RES1   0.0000
    58 C58     -1.8374  -0.7874 -19.4751   C.ar      1 RES1   0.0000
    59 H59     -2.4849  -1.6194 -19.7316   H         1 RES1   0.0000
    60 C60      0.3376   0.0897 -19.0417   C.ar      1 RES1   0.0000
    61 H61      1.4106  -0.0454 -18.9540   H         1 RES1   0.0000
    62 C62     -0.2123   1.3420 -18.8259   C.ar      1 RES1   0.0000
    63 H63      0.4306   2.1779 -18.5710   H         1 RES1   0.0000
    64 C64     -2.3857   0.4653 -19.2583   C.ar      1 RES1   0.0000
    65 H65     -3.4576   0.6090 -19.3440   H         1 RES1   0.0000
@<TRIPOS>BOND
     1     1     5   ar
     2     1     6   ar
     3     1     2    1
     4     3     8   ar
     5     3     9   ar
     6     3     4    1
     7     5     9   ar
     8     5    11    1
     9     6     8   ar
    10     6     7    1
    11     8    12    1
    12     9    10    1
    13    11    20    2
    14    11    23    1
    15    13    14    1
    16    13    23   am
    17    13    24    1
    18    14    31    1
    19    14    34    1
    20    14    15    1
    21    16    24    1
    22    16    17    1
    23    16    18    1
    24    16    19    1
    25    20    21    1
    26    20    24    1
    27    21    40   ar
    28    21    45   ar
    29    22    23    2
    30    25    34    1
    31    25    37    1
    32    25    26    1
    33    25    27    1
    34    28    31    1
    35    28    37    1
    36    28    29    1
    37    28    30    1
    38    31    32    1
    39    31    33    1
    40    34    35    1
    41    34    36    1
    42    37    38    1
    43    37    39    1
    44    40    47   ar
    45    41    45   ar
    46    41    48   ar
    47    41    42    1
    48    43    47    1
    49    43    49    1
    50    43    44    1
    51    45    46    1
    52    47    48   ar
    53    49    51    1
    54    49    52    1
    55    49    50    1
    56    51    58   ar
    57    51    60   ar
    58    52    53    1
    59    52    54    1
    60    52    55    1
    61    56    62   ar
    62    56    64   ar
    63    56    57    1
    64    58    64   ar
    65    58    59    1
    66    60    62   ar
    67    60    61    1
    68    62    63    1
    69    64    65    1
@<TRIPOS>SUBSTRUCTURE
     1 RES1        1 GROUP             0 ****  ****    0  
@<TRIPOS>MOLECULE
LIGAND_00038
    65    69     1     0     0
SMALL
USER_CHARGES
****
Generated from the CSD

@<TRIPOS>ATOM
     1 C1      -0.4438  -3.6866 -12.4159   C.ar      1 RES1   0.0000
     2 H2       0.5769  -4.0365 -12.5259   H         1 RES1   0.0000
     3 C3      -3.0314  -2.7548 -12.1550   C.ar      1 RES1   0.0000
     4 H4      -4.0442  -2.3786 -12.0557   H         1 RES1   0.0000
     5 C5      -1.4914  -4.4747 -12.8831   C.ar      1 RES1   0.0000
     6 C6      -0.6765  -2.4608 -11.8179   C.ar      1 RES1   0.0000
     7 H7       0.1461  -1.8578 -11.4480   H         1 RES1   0.0000
     8 C8      -1.9672  -2.0262 -11.7058   C.ar      1 RES1   0.0000
     9 C9      -2.7862  -3.9843 -12.7385   C.ar      1 RES1   0.0000
    10 H10     -3.6257  -4.5760 -13.0854   H         1 RES1   0.0000
    11 C11     -1.2548  -5.8030 -13.5365   C.2       1 RES1   0.0000
    12 F12     -2.2031  -0.8190 -11.1236   F         1 RES1   0.0000
    13 N13     -1.1780  -7.9481 -14.1156   N.am      1 RES1   0.0000
    14 C14     -1.3638  -9.4349 -14.2222   C.3       1 RES1   0.0000
    15 H15     -0.8754  -9.7718 -15.1354   H         1 RES1   0.0000
    16 C16     -0.1161  -7.7267 -16.3962   C.3       1 RES1   0.0000
    17 H17      0.4809  -6.9995 -16.9427   H         1 RES1   0.0000
    18 H18      0.4773  -8.6309 -16.2772   H         1 RES1   0.0000
    19 H19     -0.9891  -7.9704 -16.9980   H         1 RES1   0.0000
    20 C20     -0.5870  -5.9122 -14.7311   C.2       1 RES1   0.0000
    21 C21      0.0604  -4.8376 -15.5265   C.ar      1 RES1   0.0000
    22 O22     -2.2454  -7.5340 -12.1709   O.2       1 RES1   0.0000
    23 C23     -1.6299  -7.1222 -13.1456   C.2       1 RES1   0.0000
    24 N24     -0.5184  -7.1938 -15.0941   N.pl3     1 RES1   0.0000
    25 C25     -0.8594 -11.6521 -13.1468   C.3       1 RES1   0.0000
    26 H26     -0.4185 -12.1249 -12.2704   H         1 RES1   0.0000
    27 H27     -0.3535 -12.0068 -14.0436   H         1 RES1   0.0000
    28 C28     -2.9911 -11.3420 -14.3762   C.3       1 RES1   0.0000
    29 H29     -2.5485 -11.6995 -15.3047   H         1 RES1   0.0000
    30 H30     -4.0504 -11.5941 -14.3584   H         1 RES1   0.0000
    31 C31     -2.8362  -9.8306 -14.2988   C.3       1 RES1   0.0000
    32 H32     -3.2800  -9.3812 -15.1860   H         1 RES1   0.0000
    33 H33     -3.3500  -9.4649 -13.4110   H         1 RES1   0.0000
    34 C34     -0.7021 -10.1452 -13.0406   C.3       1 RES1   0.0000
    35 H35     -1.1659  -9.8040 -12.1162   H         1 RES1   0.0000
    36 H36      0.3586  -9.8990 -13.0269   H         1 RES1   0.0000
    37 N37     -2.3110 -12.0022 -13.2233   N.4       1 RES1   1.0000
    38 H38     -2.7640 -11.7071 -12.3642   H         1 RES1   0.0000
    39 H39     -2.3996 -13.0082 -13.3242   H         1 RES1   0.0000
    40 N40     -0.4745  -4.5722 -16.7286   N.ar      1 RES1   0.0000
    41 C41      1.6905  -3.1773 -15.9048   C.ar      1 RES1   0.0000
    42 H42      2.5557  -2.6175 -15.5653   H         1 RES1   0.0000
    43 N43     -0.4029  -3.3687 -18.6792   N.pl3     1 RES1   0.0000
    44 H44      0.0097  -2.6160 -19.2301   H         1 RES1   0.0000
    45 C45      1.1705  -4.1438 -15.0676   C.ar      1 RES1   0.0000
    46 H46      1.6110  -4.3522 -14.0982   H         1 RES1   0.0000
    47 C47      0.1180  -3.6205 -17.4677   C.ar      1 RES1   0.0000
    48 N48      1.1874  -2.8931 -17.1131   N.ar      1 RES1   0.0000
    49 C49     -1.5649  -4.0639 -19.2324   C.3       1 RES1   0.0000
    50 H50     -2.2446  -4.3263 -18.4069   H         1 RES1   0.0000
    51 C51     -1.1830  -5.3347 -19.9656   C.ar      1 RES1   0.0000
    52 C52     -2.2836  -3.0945 -20.1634   C.3       1 RES1   0.0000
    53 H53     -3.1789  -3.5512 -20.5801   H         1 RES1   0.0000
    54 H54     -2.5797  -2.1931 -19.6309   H         1 RES1   0.0000
    55 H55     -1.6369  -2.8034 -20.9885   H         1 RES1   0.0000
    56 C56     -0.4725  -7.6615 -21.3227   C.ar      1 RES1   0.0000
    57 H57     -0.1952  -8.5678 -21.8507   H         1 RES1   0.0000
    58 C58     -0.3323  -5.2865 -21.0606   C.ar      1 RES1   0.0000
    59 H59      0.0604  -4.3310 -21.3924   H         1 RES1   0.0000
    60 C60     -1.6741  -6.5691 -19.5632   C.ar      1 RES1   0.0000
    61 H61     -2.3424  -6.6315 -18.7107   H         1 RES1   0.0000
    62 C62     -1.3198  -7.7248 -20.2385   C.ar      1 RES1   0.0000
    63 H63     -1.7109  -8.6828 -19.9122   H         1 RES1   0.0000
    64 C64      0.0215  -6.4432 -21.7342   C.ar      1 RES1   0.0000
    65 H65      0.6892  -6.3896 -22.5876   H         1 RES1   0.0000
@<TRIPOS>BOND
     1     1     5   ar
     2     1     6   ar
     3     1     2    1
     4     3     8   ar
     5     3     9   ar
     6     3     4    1
     7     5     9   ar
     8     5    11    1
     9     6     8   ar
    10     6     7    1
    11     8    12    1
    12     9    10    1
    13    11    20    2
    14    11    23    1
    15    13    14    1
    16    13    23   am
    17    13    24    1
    18    14    31    1
    19    14    34    1
    20    14    15    1
    21    16    24    1
    22    16    17    1
    23    16    18    1
    24    16    19    1
    25    20    21    1
    26    20    24    1
    27    21    40   ar
    28    21    45   ar
    29    22    23    2
    30    25    34    1
    31    25    37    1
    32    25    26    1
    33    25    27    1
    34    28    31    1
    35    28    37    1
    36    28    29    1
    37    28    30    1
    38    31    32    1
    39    31    33    1
    40    34    35    1
    41    34    36    1
    42    37    38    1
    43    37    39    1
    44    40    47   ar
    45    41    45   ar
    46    41    48   ar
    47    41    42    1
    48    43    47    1
    49    43    49    1
    50    43    44    1
    51    45    46    1
    52    47    48   ar
    53    49    51    1
    54    49    52    1
    55    49    50    1
    56    51    58   ar
    57    51    60   ar
    58    52    53    1
    59    52    54    1
    60    52    55    1
    61    56    62   ar
    62    56    64   ar
    63    56    57    1
    64    58    64   ar
    65    58    59    1
    66    60    62   ar
    67    60    61    1
    68    62    63    1
    69    64    65    1
@<TRIPOS>SUBSTRUCTURE
     1 RES1        1 GROUP             0 ****  ****    0  
@<TRIPOS>MOLECULE
LIGAND_00039
    65    69     1     0     0
SMALL
USER_CHARGES
****
Generated from the CSD

@<TRIPOS>ATOM
     1 C1      -0.3073  -4.3804 -11.5414   C.ar      1 RES1   0.0000
     2 H2       0.3355  -5.1858 -11.2028   H         1 RES1   0.0000
     3 C3      -1.9083  -2.3000 -12.4019   C.ar      1 RES1   0.0000
     4 H4      -2.5286  -1.4756 -12.7377   H         1 RES1   0.0000
     5 C5      -1.0920  -4.5623 -12.6763   C.ar      1 RES1   0.0000
     6 C6      -0.3252  -3.1895 -10.8372   C.ar      1 RES1   0.0000
     7 H7       0.2828  -3.0606  -9.9480   H         1 RES1   0.0000
     8 C8      -1.1254  -2.1784 -11.2894   C.ar      1 RES1   0.0000
     9 C9      -1.8915  -3.5000 -13.0888   C.ar      1 RES1   0.0000
    10 H10     -2.5203  -3.6106 -13.9649   H         1 RES1   0.0000
    11 C11     -1.0804  -5.8452 -13.4517   C.2       1 RES1   0.0000
    12 F12     -1.1438  -1.0024 -10.6049   F         1 RES1   0.0000
    13 N13     -1.3016  -7.9300 -14.1917   N.am      1 RES1   0.0000
    14 C14     -1.6526  -9.3783 -14.3807   C.3       1 RES1   0.0000
    15 H15     -1.3239  -9.6786 -15.3745   H         1 RES1   0.0000
    16 C16     -0.5251  -7.6116 -16.5736   C.3       1 RES1   0.0000
    17 H17      0.0063  -6.8653 -17.1605   H         1 RES1   0.0000
    18 H18      0.0449  -8.5378 -16.6075   H         1 RES1   0.0000
    19 H19     -1.4899  -7.7895 -17.0440   H         1 RES1   0.0000
    20 C20     -0.5870  -5.9122 -14.7311   C.2       1 RES1   0.0000
    21 C21      0.0604  -4.8376 -15.5265   C.ar      1 RES1   0.0000
    22 O22     -2.0609  -7.5884 -12.0942   O.2       1 RES1   0.0000
    23 C23     -1.5367  -7.1528 -13.1110   C.2       1 RES1   0.0000
    24 N24     -0.6989  -7.1583 -15.1931   N.pl3     1 RES1   0.0000
    25 C25     -1.2460 -11.7175 -13.5504   C.3       1 RES1   0.0000
    26 H26     -0.7470 -12.3034 -12.7799   H         1 RES1   0.0000
    27 H27     -0.8998 -12.0386 -14.5318   H         1 RES1   0.0000
    28 C28     -3.4750 -11.1054 -14.4498   C.3       1 RES1   0.0000
    29 H29     -3.1955 -11.4207 -15.4540   H         1 RES1   0.0000
    30 H30     -4.5435 -11.2586 -14.3055   H         1 RES1   0.0000
    31 C31     -3.1556  -9.6274 -14.2836   C.3       1 RES1   0.0000
    32 H32     -3.6614  -9.0636 -15.0661   H         1 RES1   0.0000
    33 H33     -3.5097  -9.2939 -13.3093   H         1 RES1   0.0000
    34 C34     -0.9211 -10.2466 -13.3564   C.3       1 RES1   0.0000
    35 H35     -1.2237  -9.9453 -12.3547   H         1 RES1   0.0000
    36 H36      0.1523 -10.1021 -13.4703   H         1 RES1   0.0000
    37 N37     -2.7237 -11.9233 -13.4527   N.4       1 RES1   1.0000
    38 H38     -3.0289 -11.6630 -12.5203   H         1 RES1   0.0000
    39 H39     -2.9284 -12.9043 -13.6141   H         1 RES1   0.0000
    40 N40      1.3518  -5.0181 -15.8447   N.ar      1 RES1   0.0000
    41 C41      0.0944  -2.7605 -16.6407   C.ar      1 RES1   0.0000
    42 H42     -0.4181  -1.8597 -16.9618   H         1 RES1   0.0000
    43 N43      3.2523  -4.2108 -16.8421   N.pl3     1 RES1   0.0000
    44 H44      3.7084  -3.4977 -17.4109   H         1 RES1   0.0000
    45 C45     -0.6202  -3.6935 -15.9166   C.ar      1 RES1   0.0000
    46 H46     -1.6635  -3.5377 -15.6629   H         1 RES1   0.0000
    47 C47      1.9548  -4.0414 -16.5414   C.ar      1 RES1   0.0000
    48 N48      1.3851  -2.9047 -16.9677   N.ar      1 RES1   0.0000
    49 C49      4.0360  -5.3847 -16.4583   C.3       1 RES1   0.0000
    50 H50      3.3737  -6.2642 -16.4524   H         1 RES1   0.0000
    51 C51      4.6583  -5.2399 -15.0834   C.ar      1 RES1   0.0000
    52 C52      5.1088  -5.5920 -17.5211   C.3       1 RES1   0.0000
    53 H53      5.7041  -6.4759 -17.3017   H         1 RES1   0.0000
    54 H54      4.6607  -5.7209 -18.5041   H         1 RES1   0.0000
    55 H55      5.7780  -4.7353 -17.5636   H         1 RES1   0.0000
    56 C56      5.8094  -4.9611 -12.5620   C.ar      1 RES1   0.0000
    57 H57      6.2570  -4.8523 -11.5797   H         1 RES1   0.0000
    58 C58      5.5450  -4.2063 -14.8179   C.ar      1 RES1   0.0000
    59 H59      5.7934  -3.4986 -15.6019   H         1 RES1   0.0000
    60 C60      4.3596  -6.1336 -14.0642   C.ar      1 RES1   0.0000
    61 H61      3.6703  -6.9509 -14.2487   H         1 RES1   0.0000
    62 C62      4.9322  -5.9936 -12.8112   C.ar      1 RES1   0.0000
    63 H63      4.6889  -6.6994 -12.0240   H         1 RES1   0.0000
    64 C64      6.1161  -4.0674 -13.5643   C.ar      1 RES1   0.0000
    65 H65      6.8064  -3.2530 -13.3714   H         1 RES1   0.0000
@<TRIPOS>BOND
     1     1     5   ar
     2     1     6   ar
     3     1     2    1
     4     3     8   ar
     5     3     9   ar
     6     3     4    1
     7     5     9   ar
     8     5    11    1
     9     6     8   ar
    10     6     7    1
    11     8    12    1
    12     9    10    1
    13    11    20    2
    14    11    23    1
    15    13    14    1
    16    13    23   am
    17    13    24    1
    18    14    31    1
    19    14    34    1
    20    14    15    1
    21    16    24    1
    22    16    17    1
    23    16    18    1
    24    16    19    1
    25    20    21    1
    26    20    24    1
    27    21    40   ar
    28    21    45   ar
    29    22    23    2
    30    25    34    1
    31    25    37    1
    32    25    26    1
    33    25    27    1
    34    28    31    1
    35    28    37    1
    36    28    29    1
    37    28    30    1
    38    31    32    1
    39    31    33    1
    40    34    35    1
    41    34    36    1
    42    37    38    1
    43    37    39    1
    44    40    47   ar
    45    41    45   ar
    46    41    48   ar
    47    41    42    1
    48    43    47    1
    49    43    49    1
    50    43    44    1
    51    45    46    1
    52    47    48   ar
    53    49    51    1
    54    49    52    1
    55    49    50    1
    56    51    58   ar
    57    51    60   ar
    58    52    53    1
    59    52    54    1
    60    52    55    1
    61    56    62   ar
    62    56    64   ar
    63    56    57    1
    64    58    64   ar
    65    58    59    1
    66    60    62   ar
    67    60    61    1
    68    62    63    1
    69    64    65    1
@<TRIPOS>SUBSTRUCTURE
     1 RES1        1 GROUP             0 ****  ****    0  
@<TRIPOS>MOLECULE
LIGAND_00040
    65    69     1     0     0
SMALL
USER_CHARGES
****
Generated from the CSD

@<TRIPOS>ATOM
     1 C1       1.3269  -5.6060 -11.3095   C.ar      1 RES1   0.0000
     2 H2       1.6100  -6.6506 -11.2380   H         1 RES1   0.0000
     3 C3       0.6508  -2.9336 -11.4913   C.ar      1 RES1   0.0000
     4 H4       0.3960  -1.8813 -11.5610   H         1 RES1   0.0000
     5 C5       0.4303  -5.2060 -12.2959   C.ar      1 RES1   0.0000
     6 C6       1.8707  -4.6968 -10.4195   C.ar      1 RES1   0.0000
     7 H7       2.5615  -5.0197  -9.6478   H         1 RES1   0.0000
     8 C8       1.5187  -3.3816 -10.5367   C.ar      1 RES1   0.0000
     9 C9       0.1039  -3.8546 -12.3659   C.ar      1 RES1   0.0000
    10 H10     -0.5968  -3.5103 -13.1180   H         1 RES1   0.0000
    11 C11     -0.1641  -6.1787 -13.2694   C.2       1 RES1   0.0000
    12 F12      2.0539  -2.4810  -9.6683   F         1 RES1   0.0000
    13 N13     -1.2309  -7.9477 -14.1577   N.am      1 RES1   0.0000
    14 C14     -1.4878  -9.4205 -14.3034   C.3       1 RES1   0.0000
    15 H15     -1.1815  -9.7195 -15.3047   H         1 RES1   0.0000
    16 C16     -1.3616  -7.1494 -16.4351   C.3       1 RES1   0.0000
    17 H17     -0.7040  -7.1199 -17.3013   H         1 RES1   0.0000
    18 H18     -2.0253  -8.0049 -16.5430   H         1 RES1   0.0000
    19 H19     -1.9685  -6.2465 -16.4385   H         1 RES1   0.0000
    20 C20     -0.0279  -6.1202 -14.6126   C.2       1 RES1   0.0000
    21 C21      0.6269  -5.0726 -15.4374   C.ar      1 RES1   0.0000
    22 O22     -1.2047  -7.8525 -11.8620   O.2       1 RES1   0.0000
    23 C23     -0.9171  -7.3585 -12.9443   C.2       1 RES1   0.0000
    24 N24     -0.5859  -7.2461 -15.1981   N.3       1 RES1   0.0000
    25 C25     -0.8844 -11.7073 -13.4471   C.3       1 RES1   0.0000
    26 H26     -0.3135 -12.2402 -12.6881   H         1 RES1   0.0000
    27 H27     -0.5586 -12.0254 -14.4363   H         1 RES1   0.0000
    28 C28     -3.1868 -11.2700 -14.2594   C.3       1 RES1   0.0000
    29 H29     -2.9289 -11.5875 -15.2686   H         1 RES1   0.0000
    30 H30     -4.2349 -11.4931 -14.0654   H         1 RES1   0.0000
    31 C31     -2.9644  -9.7702 -14.1357   C.3       1 RES1   0.0000
    32 H32     -3.5409  -9.2599 -14.9058   H         1 RES1   0.0000
    33 H33     -3.2992  -9.4403 -13.1533   H         1 RES1   0.0000
    34 C34     -0.6548 -10.2136 -13.2957   C.3       1 RES1   0.0000
    35 H35     -0.9348  -9.9117 -12.2876   H         1 RES1   0.0000
    36 H36      0.4001  -9.9981 -13.4593   H         1 RES1   0.0000
    37 N37     -2.3388 -12.0120 -13.2806   N.4       1 RES1   1.0000
    38 H38     -2.6214 -11.7527 -12.3409   H         1 RES1   0.0000
    39 H39     -2.4813 -13.0080 -13.4141   H         1 RES1   0.0000
    40 N40     -0.1490  -4.4335 -16.3269   N.ar      1 RES1   0.0000
    41 C41      2.4700  -3.7855 -16.1469   C.ar      1 RES1   0.0000
    42 H42      3.5204  -3.5265 -16.0650   H         1 RES1   0.0000
    43 N43     -0.3324  -2.8774 -18.0012   N.pl3     1 RES1   0.0000
    44 H44     -1.3046  -3.1733 -18.0877   H         1 RES1   0.0000
    45 C45      1.9748  -4.7687 -15.3142   C.ar      1 RES1   0.0000
    46 H46      2.6104  -5.2808 -14.5994   H         1 RES1   0.0000
    47 C47      0.4377  -3.5025 -17.0963   C.ar      1 RES1   0.0000
    48 N48      1.7264  -3.1344 -17.0507   N.ar      1 RES1   0.0000
    49 C49      0.1517  -1.8422 -18.9141   C.3       1 RES1   0.0000
    50 H50      1.1998  -2.0609 -19.1711   H         1 RES1   0.0000
    51 C51      0.0835  -0.4558 -18.3042   C.ar      1 RES1   0.0000
    52 C52     -0.6858  -1.9183 -20.1853   C.3       1 RES1   0.0000
    53 H53     -0.3458  -1.1876 -20.9162   H         1 RES1   0.0000
    54 H54     -0.6168  -2.9060 -20.6364   H         1 RES1   0.0000
    55 H55     -1.7329  -1.7176 -19.9681   H         1 RES1   0.0000
    56 C56     -0.0540   2.0870 -17.1750   C.ar      1 RES1   0.0000
    57 H57     -0.1069   3.0773 -16.7347   H         1 RES1   0.0000
    58 C58     -0.8914  -0.1470 -17.3666   C.ar      1 RES1   0.0000
    59 H59     -1.6089  -0.9049 -17.0701   H         1 RES1   0.0000
    60 C60      0.9877   0.5324 -18.6688   C.ar      1 RES1   0.0000
    61 H61      1.7577   0.3148 -19.4014   H         1 RES1   0.0000
    62 C62      0.9183   1.7958 -18.1063   C.ar      1 RES1   0.0000
    63 H63      1.6321   2.5581 -18.4004   H         1 RES1   0.0000
    64 C64     -0.9587   1.1166 -16.8047   C.ar      1 RES1   0.0000
    65 H65     -1.7257   1.3425 -16.0714   H         1 RES1   0.0000
@<TRIPOS>BOND
     1     1     5   ar
     2     1     6   ar
     3     1     2    1
     4     3     8   ar
     5     3     9   ar
     6     3     4    1
     7     5     9   ar
     8     5    11    1
     9     6     8   ar
    10     6     7    1
    11     8    12    1
    12     9    10    1
    13    11    20    2
    14    11    23    1
    15    13    14    1
    16    13    23   am
    17    13    24    1
    18    14    31    1
    19    14    34    1
    20    14    15    1
    21    16    24    1
    22    16    17    1
    23    16    18    1
    24    16    19    1
    25    20    21    1
    26    20    24    1
    27    21    40   ar
    28    21    45   ar
    29    22    23    2
    30    25    34    1
    31    25    37    1
    32    25    26    1
    33    25    27    1
    34    28    31    1
    35    28    37    1
    36    28    29    1
    37    28    30    1
    38    31    32    1
    39    31    33    1
    40    34    35    1
    41    34    36    1
    42    37    38    1
    43    37    39    1
    44    40    47   ar
    45    41    45   ar
    46    41    48   ar
    47    41    42    1
    48    43    47    1
    49    43    49    1
    50    43    44    1
    51    45    46    1
    52    47    48   ar
    53    49    51    1
    54    49    52    1
    55    49    50    1
    56    51    58   ar
    57    51    60   ar
    58    52    53    1
    59    52    54    1
    60    52    55    1
    61    56    62   ar
    62    56    64   ar
    63    56    57    1
    64    58    64   ar
    65    58    59    1
    66    60    62   ar
    67    60    61    1
    68    62    63    1
    69    64    65    1
@<TRIPOS>SUBSTRUCTURE
     1 RES1        1 GROUP             0 ****  ****    0  
@<TRIPOS>MOLECULE
LIGAND_00041
    65    69     1     0     0
SMALL
USER_CHARGES
****
Generated from the CSD

@<TRIPOS>ATOM
     1 C1       1.8363  -5.0308 -12.2162   C.ar      1 RES1   0.0000
     2 H2       2.4918  -5.5879 -12.8768   H         1 RES1   0.0000
     3 C3       0.1881  -3.5725 -10.5463   C.ar      1 RES1   0.0000
     4 H4      -0.4529  -2.9906  -9.8924   H         1 RES1   0.0000
     5 C5       0.4604  -5.2241 -12.2950   C.ar      1 RES1   0.0000
     6 C6       2.3872  -4.1369 -11.3151   C.ar      1 RES1   0.0000
     7 H7       3.4617  -4.0002 -11.2544   H         1 RES1   0.0000
     8 C8       1.5456  -3.4286 -10.5045   C.ar      1 RES1   0.0000
     9 C9      -0.3489  -4.4790 -11.4419   C.ar      1 RES1   0.0000
    10 H10     -1.4245  -4.6103 -11.4724   H         1 RES1   0.0000
    11 C11     -0.1512  -6.1860 -13.2685   C.2       1 RES1   0.0000
    12 F12      2.0801  -2.5436  -9.6196   F         1 RES1   0.0000
    13 N13     -1.2406  -7.9410 -14.1570   N.am      1 RES1   0.0000
    14 C14     -1.5106  -9.4109 -14.3092   C.3       1 RES1   0.0000
    15 H15     -1.2165  -9.7060 -15.3154   H         1 RES1   0.0000
    16 C16     -1.3876  -7.1276 -16.4280   C.3       1 RES1   0.0000
    17 H17     -0.7384  -7.0978 -17.3006   H         1 RES1   0.0000
    18 H18     -2.0590  -7.9772 -16.5346   H         1 RES1   0.0000
    19 H19     -1.9875  -6.2200 -16.4198   H         1 RES1   0.0000
    20 C20     -0.0279  -6.1202 -14.6126   C.2       1 RES1   0.0000
    21 C21      0.6269  -5.0726 -15.4374   C.ar      1 RES1   0.0000
    22 O22     -1.1910  -7.8605 -11.8611   O.2       1 RES1   0.0000
    23 C23     -0.9103  -7.3619 -12.9432   C.2       1 RES1   0.0000
    24 N24     -0.6005  -7.2381 -15.1994   N.3       1 RES1   0.0000
    25 C25     -0.9166 -11.7076 -13.4731   C.3       1 RES1   0.0000
    26 H26     -0.3425 -12.2497 -12.7231   H         1 RES1   0.0000
    27 H27     -0.6032 -12.0221 -14.4675   H         1 RES1   0.0000
    28 C28     -3.2234 -11.2473 -14.2597   C.3       1 RES1   0.0000
    29 H29     -2.9780 -11.5605 -15.2734   H         1 RES1   0.0000
    30 H30     -4.2713 -11.4635 -14.0566   H         1 RES1   0.0000
    31 C31     -2.9881  -9.7501 -14.1290   C.3       1 RES1   0.0000
    32 H32     -3.5682  -9.2306 -14.8902   H         1 RES1   0.0000
    33 H33     -3.3105  -9.4238 -13.1413   H         1 RES1   0.0000
    34 C34     -0.6738 -10.2168 -13.3148   C.3       1 RES1   0.0000
    35 H35     -0.9415  -9.9189 -12.3021   H         1 RES1   0.0000
    36 H36      0.3810 -10.0085 -13.4876   H         1 RES1   0.0000
    37 N37     -2.3716 -12.0020 -13.2941   N.4       1 RES1   1.0000
    38 H38     -2.6429 -11.7464 -12.3500   H         1 RES1   0.0000
    39 H39     -2.5232 -12.9961 -13.4322   H         1 RES1   0.0000
    40 N40      1.6492  -5.4674 -16.2125   N.ar      1 RES1   0.0000
    41 C41      0.9175  -2.8643 -16.2094   C.ar      1 RES1   0.0000
    42 H42      0.6145  -1.8224 -16.2076   H         1 RES1   0.0000
    43 N43      3.3019  -4.9139 -17.7026   N.pl3     1 RES1   0.0000
    44 H44      3.5937  -5.8898 -17.6494   H         1 RES1   0.0000
    45 C45      0.2208  -3.7465 -15.4083   C.ar      1 RES1   0.0000
    46 H46     -0.6032  -3.4174 -14.7839   H         1 RES1   0.0000
    47 C47      2.2656  -4.5244 -16.9431   C.ar      1 RES1   0.0000
    48 N48      1.9469  -3.2225 -16.9876   N.ar      1 RES1   0.0000
    49 C49      4.0786  -4.0129 -18.5538   C.3       1 RES1   0.0000
    50 H50      4.1146  -3.0211 -18.0769   H         1 RES1   0.0000
    51 C51      3.4761  -3.8618 -19.9368   C.ar      1 RES1   0.0000
    52 C52      5.4975  -4.5635 -18.6364   C.3       1 RES1   0.0000
    53 H53      6.1306  -3.9113 -19.2344   H         1 RES1   0.0000
    54 H54      5.9386  -4.6483 -17.6455   H         1 RES1   0.0000
    55 H55      5.5005  -5.5505 -19.0940   H         1 RES1   0.0000
    56 C56      2.3633  -3.5988 -22.4770   C.ar      1 RES1   0.0000
    57 H57      1.9294  -3.4959 -23.4661   H         1 RES1   0.0000
    58 C58      2.7580  -4.9021 -20.5087   C.ar      1 RES1   0.0000
    59 H59      2.6288  -5.8292 -19.9601   H         1 RES1   0.0000
    60 C60      3.6296  -2.6874 -20.6606   C.ar      1 RES1   0.0000
    61 H61      4.1886  -1.8608 -20.2348   H         1 RES1   0.0000
    62 C62      3.0756  -2.5579 -21.9230   C.ar      1 RES1   0.0000
    63 H63      3.2031  -1.6338 -22.4769   H         1 RES1   0.0000
    64 C64      2.2041  -4.7707 -21.7707   C.ar      1 RES1   0.0000
    65 H65      1.6437  -5.5924 -22.2040   H         1 RES1   0.0000
@<TRIPOS>BOND
     1     1     5   ar
     2     1     6   ar
     3     1     2    1
     4     3     8   ar
     5     3     9   ar
     6     3     4    1
     7     5     9   ar
     8     5    11    1
     9     6     8   ar
    10     6     7    1
    11     8    12    1
    12     9    10    1
    13    11    20    2
    14    11    23    1
    15    13    14    1
    16    13    23   am
    17    13    24    1
    18    14    31    1
    19    14    34    1
    20    14    15    1
    21    16    24    1
    22    16    17    1
    23    16    18    1
    24    16    19    1
    25    20    21    1
    26    20    24    1
    27    21    40   ar
    28    21    45   ar
    29    22    23    2
    30    25    34    1
    31    25    37    1
    32    25    26    1
    33    25    27    1
    34    28    31    1
    35    28    37    1
    36    28    29    1
    37    28    30    1
    38    31    32    1
    39    31    33    1
    40    34    35    1
    41    34    36    1
    42    37    38    1
    43    37    39    1
    44    40    47   ar
    45    41    45   ar
    46    41    48   ar
    47    41    42    1
    48    43    47    1
    49    43    49    1
    50    43    44    1
    51    45    46    1
    52    47    48   ar
    53    49    51    1
    54    49    52    1
    55    49    50    1
    56    51    58   ar
    57    51    60   ar
    58    52    53    1
    59    52    54    1
    60    52    55    1
    61    56    62   ar
    62    56    64   ar
    63    56    57    1
    64    58    64   ar
    65    58    59    1
    66    60    62   ar
    67    60    61    1
    68    62    63    1
    69    64    65    1
@<TRIPOS>SUBSTRUCTURE
     1 RES1        1 GROUP             0 ****  ****    0  
@<TRIPOS>MOLECULE
LIGAND_00042
    65    69     1     0     0
SMALL
USER_CHARGES
****
Generated from the CSD

@<TRIPOS>ATOM
     1 C1       1.6192  -5.8026 -11.4437   C.ar      1 RES1   0.0000
     2 H2       1.8959  -6.8509 -11.4760   H         1 RES1   0.0000
     3 C3       0.9594  -3.1211 -11.3650   C.ar      1 RES1   0.0000
     4 H4       0.7112  -2.0654 -11.3334   H         1 RES1   0.0000
     5 C5       0.6269  -5.3301 -12.2975   C.ar      1 RES1   0.0000
     6 C6       2.2660  -4.9608 -10.5563   C.ar      1 RES1   0.0000
     7 H7       3.0316  -5.3403  -9.8878   H         1 RES1   0.0000
     8 C8       1.9192  -3.6391 -10.5430   C.ar      1 RES1   0.0000
     9 C9       0.3110  -3.9757 -12.2376   C.ar      1 RES1   0.0000
    10 H10     -0.4621  -3.5762 -12.8841   H         1 RES1   0.0000
    11 C11     -0.0799  -6.2291 -13.2667   C.2       1 RES1   0.0000
    12 F12      2.5551  -2.8043  -9.6766   F         1 RES1   0.0000
    13 N13     -1.2943  -7.9025 -14.1507   N.am      1 RES1   0.0000
    14 C14     -1.6379  -9.3530 -14.3367   C.3       1 RES1   0.0000
    15 H15     -1.4133  -9.6239 -15.3673   H         1 RES1   0.0000
    16 C16     -1.5293  -7.0021 -16.3811   C.3       1 RES1   0.0000
    17 H17     -0.9284  -6.9687 -17.2875   H         1 RES1   0.0000
    18 H18     -2.2431  -7.8176 -16.4780   H         1 RES1   0.0000
    19 H19     -2.0864  -6.0704 -16.3084   H         1 RES1   0.0000
    20 C20     -0.0279  -6.1202 -14.6126   C.2       1 RES1   0.0000
    21 C21      0.6269  -5.0726 -15.4374   C.ar      1 RES1   0.0000
    22 O22     -1.1148  -7.9071 -11.8599   O.2       1 RES1   0.0000
    23 C23     -0.8719  -7.3823 -12.9387   C.2       1 RES1   0.0000
    24 N24     -0.6815  -7.1906 -15.2034   N.3       1 RES1   0.0000
    25 C25     -1.1025 -11.7018 -13.6134   C.3       1 RES1   0.0000
    26 H26     -0.5127 -12.2948 -12.9159   H         1 RES1   0.0000
    27 H27     -0.8587 -11.9933 -14.6340   H         1 RES1   0.0000
    28 C28     -3.4262 -11.1148 -14.2521   C.3       1 RES1   0.0000
    29 H29     -3.2513 -11.4014 -15.2880   H         1 RES1   0.0000
    30 H30     -4.4699 -11.2929 -13.9973   H         1 RES1   0.0000
    31 C31     -3.1170  -9.6347 -14.0845   C.3       1 RES1   0.0000
    32 H32     -3.7143  -9.0636 -14.7938   H         1 RES1   0.0000
    33 H33     -3.3695  -9.3308 -13.0698   H         1 RES1   0.0000
    34 C34     -0.7846 -10.2294 -13.4191   C.3       1 RES1   0.0000
    35 H35     -0.9824  -9.9571 -12.3834   H         1 RES1   0.0000
    36 H36      0.2674 -10.0605 -13.6442   H         1 RES1   0.0000
    37 N37     -2.5571 -11.9397 -13.3622   N.4       1 RES1   1.0000
    38 H38     -2.7642 -11.7070 -12.3962   H         1 RES1   0.0000
    39 H39     -2.7606 -12.9207 -13.5250   H         1 RES1   0.0000
    40 N40      1.6492  -5.4674 -16.2125   N.ar      1 RES1   0.0000
    41 C41      0.9175  -2.8643 -16.2094   C.ar      1 RES1   0.0000
    42 H42      0.6145  -1.8224 -16.2076   H         1 RES1   0.0000
    43 N43      3.3019  -4.9139 -17.7026   N.pl3     1 RES1   0.0000
    44 H44      3.5937  -5.8898 -17.6494   H         1 RES1   0.0000
    45 C45      0.2208  -3.7465 -15.4083   C.ar      1 RES1   0.0000
    46 H46     -0.6032  -3.4174 -14.7839   H         1 RES1   0.0000
    47 C47      2.2656  -4.5244 -16.9431   C.ar      1 RES1   0.0000
    48 N48      1.9469  -3.2225 -16.9876   N.ar      1 RES1   0.0000
    49 C49      4.0786  -4.0129 -18.5538   C.3       1 RES1   0.0000
    50 H50      4.1145  -3.0211 -18.0769   H         1 RES1   0.0000
    51 C51      3.4761  -3.8619 -19.9368   C.ar      1 RES1   0.0000
    52 C52      5.4975  -4.5634 -18.6364   C.3       1 RES1   0.0000
    53 H53      6.1306  -3.9113 -19.2344   H         1 RES1   0.0000
    54 H54      5.9386  -4.6482 -17.6455   H         1 RES1   0.0000
    55 H55      5.5005  -5.5505 -19.0940   H         1 RES1   0.0000
    56 C56      2.3707  -3.5999 -22.4804   C.ar      1 RES1   0.0000
    57 H57      1.9394  -3.4977 -23.4707   H         1 RES1   0.0000
    58 C58      3.3198  -4.9674 -20.7605   C.ar      1 RES1   0.0000
    59 H59      3.6323  -5.9454 -20.4098   H         1 RES1   0.0000
    60 C60      3.0712  -2.6214 -20.4103   C.ar      1 RES1   0.0000
    61 H61      3.1852  -1.7423 -19.7849   H         1 RES1   0.0000
    62 C62      2.5216  -2.4928 -21.6747   C.ar      1 RES1   0.0000
    63 H63      2.2090  -1.5170 -22.0312   H         1 RES1   0.0000
    64 C64      2.7693  -4.8370 -22.0242   C.ar      1 RES1   0.0000
    65 H65      2.6518  -5.7110 -22.6560   H         1 RES1   0.0000
@<TRIPOS>BOND
     1     1     5   ar
     2     1     6   ar
     3     1     2    1
     4     3     8   ar
     5     3     9   ar
     6     3     4    1
     7     5     9   ar
     8     5    11    1
     9     6     8   ar
    10     6     7    1
    11     8    12    1
    12     9    10    1
    13    11    20    2
    14    11    23    1
    15    13    14    1
    16    13    23   am
    17    13    24    1
    18    14    31    1
    19    14    34    1
    20    14    15    1
    21    16    24    1
    22    16    17    1
    23    16    18    1
    24    16    19    1
    25    20    21    1
    26    20    24    1
    27    21    40   ar
    28    21    45   ar
    29    22    23    2
    30    25    34    1
    31    25    37    1
    32    25    26    1
    33    25    27    1
    34    28    31    1
    35    28    37    1
    36    28    29    1
    37    28    30    1
    38    31    32    1
    39    31    33    1
    40    34    35    1
    41    34    36    1
    42    37    38    1
    43    37    39    1
    44    40    47   ar
    45    41    45   ar
    46    41    48   ar
    47    41    42    1
    48    43    47    1
    49    43    49    1
    50    43    44    1
    51    45    46    1
    52    47    48   ar
    53    49    51    1
    54    49    52    1
    55    49    50    1
    56    51    58   ar
    57    51    60   ar
    58    52    53    1
    59    52    54    1
    60    52    55    1
    61    56    62   ar
    62    56    64   ar
    63    56    57    1
    64    58    64   ar
    65    58    59    1
    66    60    62   ar
    67    60    61    1
    68    62    63    1
    69    64    65    1
@<TRIPOS>SUBSTRUCTURE
     1 RES1        1 GROUP             0 ****  ****    0  
@<TRIPOS>MOLECULE
LIGAND_00043
    65    69     1     0     0
SMALL
USER_CHARGES
****
Generated from the CSD

@<TRIPOS>ATOM
     1 C1      -1.1703  -3.4197 -15.0826   C.ar      1 RES1   0.0000
     2 H2      -2.1958  -3.5542 -14.7559   H         1 RES1   0.0000
     3 C3       1.4445  -3.0387 -15.8886   C.ar      1 RES1   0.0000
     4 H4       2.4714  -2.8790 -16.2001   H         1 RES1   0.0000
     5 C5      -0.2773  -4.4831 -14.9891   C.ar      1 RES1   0.0000
     6 C6      -0.7758  -2.1900 -15.5791   C.ar      1 RES1   0.0000
     7 H7      -1.4816  -1.3698 -15.6571   H         1 RES1   0.0000
     8 C8       0.5249  -2.0321 -15.9671   C.ar      1 RES1   0.0000
     9 C9       1.0340  -4.2668 -15.4033   C.ar      1 RES1   0.0000
    10 H10      1.7535  -5.0759 -15.3504   H         1 RES1   0.0000
    11 C11     -0.6891  -5.8198 -14.4499   C.2       1 RES1   0.0000
    12 F12      0.9213  -0.8236 -16.4513   F         1 RES1   0.0000
    13 N13     -1.1383  -7.9692 -14.1020   N.am      1 RES1   0.0000
    14 C14     -1.2682  -9.4629 -14.1940   C.3       1 RES1   0.0000
    15 H15     -0.9096  -9.7735 -15.1743   H         1 RES1   0.0000
    16 C16     -1.7372  -7.8785 -11.6503   C.3       1 RES1   0.0000
    17 H17     -2.3108  -7.2068 -11.0150   H         1 RES1   0.0000
    18 H18     -2.3139  -8.7912 -11.7857   H         1 RES1   0.0000
    19 H19     -0.8159  -8.1332 -11.1308   H         1 RES1   0.0000
    20 C20     -1.1594  -5.9688 -13.1688   C.2       1 RES1   0.0000
    21 C21     -1.4160  -4.9157 -12.1531   C.ar      1 RES1   0.0000
    22 O22     -0.3397  -7.4938 -16.1583   O.2       1 RES1   0.0000
    23 C23     -0.6816  -7.1157 -15.0455   C.2       1 RES1   0.0000
    24 N24     -1.4470  -7.2509 -12.9399   N.pl3     1 RES1   0.0000
    25 C25     -0.5023 -11.6565 -13.2304   C.3       1 RES1   0.0000
    26 H26      0.0887 -12.1101 -12.4361   H         1 RES1   0.0000
    27 H27     -0.1232 -11.9840 -14.1973   H         1 RES1   0.0000
    28 C28     -2.8088 -11.4453 -14.1178   C.3       1 RES1   0.0000
    29 H29     -2.4967 -11.7786 -15.1065   H         1 RES1   0.0000
    30 H30     -3.8400 -11.7478 -13.9415   H         1 RES1   0.0000
    31 C31     -2.7150  -9.9284 -14.0497   C.3       1 RES1   0.0000
    32 H32     -3.3095  -9.4983 -14.8543   H         1 RES1   0.0000
    33 H33     -3.1039  -9.5903 -13.0903   H         1 RES1   0.0000
    34 C34     -0.4016 -10.1441 -13.1342   C.3       1 RES1   0.0000
    35 H35     -0.7344  -9.8281 -12.1466   H         1 RES1   0.0000
    36 H36      0.6361  -9.8474 -13.2796   H         1 RES1   0.0000
    37 N37     -1.9307 -12.0754 -13.0886   N.4       1 RES1   1.0000
    38 H38     -2.2606 -11.8048 -12.1676   H         1 RES1   0.0000
    39 H39     -1.9864 -13.0843 -13.1850   H         1 RES1   0.0000
    40 N40     -2.5040  -5.0736 -11.3829   N.ar      1 RES1   0.0000
    41 C41     -0.9401  -2.8952 -11.0360   C.ar      1 RES1   0.0000
    42 H42     -0.3048  -2.0264 -10.8983   H         1 RES1   0.0000
    43 N43     -3.8600  -4.2605  -9.7221   N.pl3     1 RES1   0.0000
    44 H44     -4.0321  -3.5708  -8.9907   H         1 RES1   0.0000
    45 C45     -0.5883  -3.8123 -12.0057   C.ar      1 RES1   0.0000
    46 H46      0.2923  -3.6750 -12.6245   H         1 RES1   0.0000
    47 C47     -2.7605  -4.1147 -10.4787   C.ar      1 RES1   0.0000
    48 N48     -2.0225  -3.0172 -10.2566   N.ar      1 RES1   0.0000
    49 C49     -4.7930  -5.3809  -9.8394   C.3       1 RES1   0.0000
    50 H50     -4.2504  -6.3151  -9.6271   H         1 RES1   0.0000
    51 C51     -5.4042  -5.4816 -11.2232   C.ar      1 RES1   0.0000
    52 C52     -5.8734  -5.1957  -8.7804   C.3       1 RES1   0.0000
    53 H53     -6.5804  -6.0225  -8.8012   H         1 RES1   0.0000
    54 H54     -5.4365  -5.1485  -7.7851   H         1 RES1   0.0000
    55 H55     -6.4255  -4.2740  -8.9519   H         1 RES1   0.0000
    56 C56     -6.5260  -5.6511 -13.7674   C.ar      1 RES1   0.0000
    57 H57     -6.9622  -5.7173 -14.7586   H         1 RES1   0.0000
    58 C58     -5.5942  -4.3429 -11.9928   C.ar      1 RES1   0.0000
    59 H59     -5.3027  -3.3749 -11.5987   H         1 RES1   0.0000
    60 C60     -5.7883  -6.7074 -11.7492   C.ar      1 RES1   0.0000
    61 H61     -5.6512  -7.6114 -11.1652   H         1 RES1   0.0000
    62 C62     -6.3455  -6.7902 -13.0141   C.ar      1 RES1   0.0000
    63 H63     -6.6404  -7.7552 -13.4126   H         1 RES1   0.0000
    64 C64     -6.1507  -4.4276 -13.2577   C.ar      1 RES1   0.0000
    65 H65     -6.2913  -3.5285 -13.8483   H         1 RES1   0.0000
@<TRIPOS>BOND
     1     1     5   ar
     2     1     6   ar
     3     1     2    1
     4     3     8   ar
     5     3     9   ar
     6     3     4    1
     7     5     9   ar
     8     5    11    1
     9     6     8   ar
    10     6     7    1
    11     8    12    1
    12     9    10    1
    13    11    20    2
    14    11    23    1
    15    13    14    1
    16    13    23   am
    17    13    24    1
    18    14    31    1
    19    14    34    1
    20    14    15    1
    21    16    24    1
    22    16    17    1
    23    16    18    1
    24    16    19    1
    25    20    21    1
    26    20    24    1
    27    21    40   ar
    28    21    45   ar
    29    22    23    2
    30    25    34    1
    31    25    37    1
    32    25    26    1
    33    25    27    1
    34    28    31    1
    35    28    37    1
    36    28    29    1
    37    28    30    1
    38    31    32    1
    39    31    33    1
    40    34    35    1
    41    34    36    1
    42    37    38    1
    43    37    39    1
    44    40    47   ar
    45    41    45   ar
    46    41    48   ar
    47    41    42    1
    48    43    47    1
    49    43    49    1
    50    43    44    1
    51    45    46    1
    52    47    48   ar
    53    49    51    1
    54    49    52    1
    55    49    50    1
    56    51    58   ar
    57    51    60   ar
    58    52    53    1
    59    52    54    1
    60    52    55    1
    61    56    62   ar
    62    56    64   ar
    63    56    57    1
    64    58    64   ar
    65    58    59    1
    66    60    62   ar
    67    60    61    1
    68    62    63    1
    69    64    65    1
@<TRIPOS>SUBSTRUCTURE
     1 RES1        1 GROUP             0 ****  ****    0  
@<TRIPOS>MOLECULE
LIGAND_00044
    65    69     1     0     0
SMALL
USER_CHARGES
****
Generated from the CSD

@<TRIPOS>ATOM
     1 C1      -0.0611  -3.9114 -15.8978   C.ar      1 RES1   0.0000
     2 H2      -0.8406  -4.2907 -16.5497   H         1 RES1   0.0000
     3 C3       1.9038  -2.9035 -14.2379   C.ar      1 RES1   0.0000
     4 H4       2.6713  -2.4972 -13.5876   H         1 RES1   0.0000
     5 C5       0.2519  -4.6028 -14.7313   C.ar      1 RES1   0.0000
     6 C6       0.5982  -2.7447 -16.2420   C.ar      1 RES1   0.0000
     7 H7       0.3539  -2.2179 -17.1583   H         1 RES1   0.0000
     8 C8       1.5634  -2.2701 -15.3991   C.ar      1 RES1   0.0000
     9 C9       1.2467  -4.0759 -13.9124   C.ar      1 RES1   0.0000
    10 H10      1.5199  -4.5932 -12.9998   H         1 RES1   0.0000
    11 C11     -0.4562  -5.8659 -14.3434   C.2       1 RES1   0.0000
    12 F12      2.2122  -1.1201 -15.7284   F         1 RES1   0.0000
    13 N13     -1.2979  -7.9182 -14.1951   N.am      1 RES1   0.0000
    14 C14     -1.6478  -9.3660 -14.3905   C.3       1 RES1   0.0000
    15 H15     -1.1923  -9.7011 -15.3211   H         1 RES1   0.0000
    16 C16     -2.2907  -7.7954 -11.8763   C.3       1 RES1   0.0000
    17 H17     -2.9102  -7.0729 -11.3489   H         1 RES1   0.0000
    18 H18     -2.9171  -8.6415 -12.1513   H         1 RES1   0.0000
    19 H19     -1.5237  -8.1496 -11.1908   H         1 RES1   0.0000
    20 C20     -1.1594  -5.9688 -13.1688   C.2       1 RES1   0.0000
    21 C21     -1.4160  -4.9157 -12.1531   C.ar      1 RES1   0.0000
    22 O22     -0.0889  -7.5274 -16.0601   O.2       1 RES1   0.0000
    23 C23     -0.5536  -7.1279 -15.0004   C.2       1 RES1   0.0000
    24 N24     -1.6842  -7.1904 -13.0627   N.pl3     1 RES1   0.0000
    25 C25     -1.4039 -11.6853 -13.4480   C.3       1 RES1   0.0000
    26 H26     -1.0264 -12.2554 -12.6005   H         1 RES1   0.0000
    27 H27     -0.9332 -12.0409 -14.3633   H         1 RES1   0.0000
    28 C28     -3.4769 -11.0661 -14.6612   C.3       1 RES1   0.0000
    29 H29     -3.0689 -11.4157 -15.6084   H         1 RES1   0.0000
    30 H30     -4.5578 -11.1984 -14.6605   H         1 RES1   0.0000
    31 C31     -3.1546  -9.5888 -14.4936   C.3       1 RES1   0.0000
    32 H32     -3.5376  -9.0410 -15.3533   H         1 RES1   0.0000
    33 H33     -3.6319  -9.2209 -13.5866   H         1 RES1   0.0000
    34 C34     -1.0801 -10.2144 -13.2520   C.3       1 RES1   0.0000
    35 H35     -1.5108  -9.8785 -12.3099   H         1 RES1   0.0000
    36 H36      0.0013 -10.0899 -13.2215   H         1 RES1   0.0000
    37 N37     -2.8849 -11.8652 -13.5482   N.4       1 RES1   1.0000
    38 H38     -3.3095 -11.5724 -12.6740   H         1 RES1   0.0000
    39 H39     -3.0846 -12.8473 -13.7090   H         1 RES1   0.0000
    40 N40     -1.4457  -5.3100 -10.8704   N.ar      1 RES1   0.0000
    41 C41     -1.8713  -2.7071 -11.4663   C.ar      1 RES1   0.0000
    42 H42     -2.0353  -1.6631 -11.7123   H         1 RES1   0.0000
    43 N43     -1.7536  -4.7680  -8.6637   N.pl3     1 RES1   0.0000
    44 H44     -1.6583  -5.7644  -8.4673   H         1 RES1   0.0000
    45 C45     -1.6289  -3.5895 -12.4997   C.ar      1 RES1   0.0000
    46 H46     -1.6086  -3.2613 -13.5337   H         1 RES1   0.0000
    47 C47     -1.7025  -4.3713  -9.9453   C.ar      1 RES1   0.0000
    48 N48     -1.9163  -3.0679 -10.1773   N.ar      1 RES1   0.0000
    49 C49     -2.0003  -3.8690  -7.5366   C.3       1 RES1   0.0000
    50 H50     -2.9888  -3.4021  -7.6678   H         1 RES1   0.0000
    51 C51     -0.9585  -2.7724  -7.4333   C.ar      1 RES1   0.0000
    52 C52     -2.0271  -4.7140  -6.2683   C.3       1 RES1   0.0000
    53 H53     -2.2404  -4.0973  -5.3977   H         1 RES1   0.0000
    54 H54     -2.7918  -5.4853  -6.3327   H         1 RES1   0.0000
    55 H55     -1.0672  -5.2013  -6.1110   H         1 RES1   0.0000
    56 C56      0.9668  -0.7682  -7.2419   C.ar      1 RES1   0.0000
    57 H57      1.7166   0.0125  -7.1682   H         1 RES1   0.0000
    58 C58      0.3808  -3.0888  -7.2571   C.ar      1 RES1   0.0000
    59 H59      0.6816  -4.1292  -7.1927   H         1 RES1   0.0000
    60 C60     -1.3177  -1.4337  -7.5095   C.ar      1 RES1   0.0000
    61 H61     -2.3592  -1.1618  -7.6453   H         1 RES1   0.0000
    62 C62     -0.3595  -0.4385  -7.4146   C.ar      1 RES1   0.0000
    63 H63     -0.6548   0.6036  -7.4766   H         1 RES1   0.0000
    64 C64      1.3376  -2.0925  -7.1632   C.ar      1 RES1   0.0000
    65 H65      2.3813  -2.3556  -7.0273   H         1 RES1   0.0000
@<TRIPOS>BOND
     1     1     5   ar
     2     1     6   ar
     3     1     2    1
     4     3     8   ar
     5     3     9   ar
     6     3     4    1
     7     5     9   ar
     8     5    11    1
     9     6     8   ar
    10     6     7    1
    11     8    12    1
    12     9    10    1
    13    11    20    2
    14    11    23    1
    15    13    14    1
    16    13    23   am
    17    13    24    1
    18    14    31    1
    19    14    34    1
    20    14    15    1
    21    16    24    1
    22    16    17    1
    23    16    18    1
    24    16    19    1
    25    20    21    1
    26    20    24    1
    27    21    40   ar
    28    21    45   ar
    29    22    23    2
    30    25    34    1
    31    25    37    1
    32    25    26    1
    33    25    27    1
    34    28    31    1
    35    28    37    1
    36    28    29    1
    37    28    30    1
    38    31    32    1
    39    31    33    1
    40    34    35    1
    41    34    36    1
    42    37    38    1
    43    37    39    1
    44    40    47   ar
    45    41    45   ar
    46    41    48   ar
    47    41    42    1
    48    43    47    1
    49    43    49    1
    50    43    44    1
    51    45    46    1
    52    47    48   ar
    53    49    51    1
    54    49    52    1
    55    49    50    1
    56    51    58   ar
    57    51    60   ar
    58    52    53    1
    59    52    54    1
    60    52    55    1
    61    56    62   ar
    62    56    64   ar
    63    56    57    1
    64    58    64   ar
    65    58    59    1
    66    60    62   ar
    67    60    61    1
    68    62    63    1
    69    64    65    1
@<TRIPOS>SUBSTRUCTURE
     1 RES1        1 GROUP             0 ****  ****    0  
@<TRIPOS>MOLECULE
LIGAND_00045
    65    69     1     0     0
SMALL
USER_CHARGES
****
Generated from the CSD

@<TRIPOS>ATOM
     1 C1       0.6309  -4.0846 -15.5849   C.ar      1 RES1   0.0000
     2 H2      -0.0487  -4.4237 -16.3594   H         1 RES1   0.0000
     3 C3       2.3447  -3.1779 -13.6171   C.ar      1 RES1   0.0000
     4 H4       3.0148  -2.8112 -12.8466   H         1 RES1   0.0000
     5 C5       0.6838  -4.7680 -14.3737   C.ar      1 RES1   0.0000
     6 C6       1.4241  -2.9758 -15.8210   C.ar      1 RES1   0.0000
     7 H7       1.3829  -2.4553 -16.7720   H         1 RES1   0.0000
     8 C8       2.2597  -2.5502 -14.8271   C.ar      1 RES1   0.0000
     9 C9       1.5565  -4.2929 -13.3988   C.ar      1 RES1   0.0000
    10 H10      1.6275  -4.8060 -12.4465   H         1 RES1   0.0000
    11 C11     -0.1721  -5.9684 -14.1020   C.2       1 RES1   0.0000
    12 F12      3.0388  -1.4570 -15.0503   F         1 RES1   0.0000
    13 N13     -1.2838  -7.9054 -14.2114   N.am      1 RES1   0.0000
    14 C14     -1.6315  -9.3524 -14.4161   C.3       1 RES1   0.0000
    15 H15     -1.0340  -9.7295 -15.2448   H         1 RES1   0.0000
    16 C16     -3.0879  -7.3890 -12.6351   C.3       1 RES1   0.0000
    17 H17     -3.3462  -6.6648 -11.8653   H         1 RES1   0.0000
    18 H18     -3.7662  -7.2477 -13.4740   H         1 RES1   0.0000
    19 H19     -3.2502  -8.3862 -12.2316   H         1 RES1   0.0000
    20 C20     -1.0688  -6.0097 -13.0848   C.2       1 RES1   0.0000
    21 C21     -1.4087  -4.9383 -12.1137   C.ar      1 RES1   0.0000
    22 O22      0.3631  -7.6252 -15.8025   O.2       1 RES1   0.0000
    23 C23     -0.2682  -7.2008 -14.8435   C.2       1 RES1   0.0000
    24 N24     -1.6968  -7.2225 -13.0577   N.3       1 RES1   0.0000
    25 C25     -1.6074 -11.6403 -13.3711   C.3       1 RES1   0.0000
    26 H26     -1.3923 -12.1863 -12.4538   H         1 RES1   0.0000
    27 H27     -0.9980 -12.0376 -14.1815   H         1 RES1   0.0000
    28 C28     -3.4302 -11.0263 -14.9372   C.3       1 RES1   0.0000
    29 H29     -2.8771 -11.4176 -15.7898   H         1 RES1   0.0000
    30 H30     -4.4987 -11.1381 -15.1153   H         1 RES1   0.0000
    31 C31     -3.1043  -9.5503 -14.7655   C.3       1 RES1   0.0000
    32 H32     -3.3233  -9.0268 -15.6950   H         1 RES1   0.0000
    33 H33     -3.7185  -9.1408 -13.9649   H         1 RES1   0.0000
    34 C34     -1.2849 -10.1697 -13.1709   C.3       1 RES1   0.0000
    35 H35     -1.8599  -9.7918 -12.3268   H         1 RES1   0.0000
    36 H36     -0.2214 -10.0646 -12.9619   H         1 RES1   0.0000
    37 N37     -3.0543 -11.7957 -13.7147   N.4       1 RES1   1.0000
    38 H38     -3.6127 -11.4634 -12.9350   H         1 RES1   0.0000
    39 H39     -3.2482 -12.7790 -13.8750   H         1 RES1   0.0000
    40 N40     -1.6971  -5.3286 -10.8622   N.ar      1 RES1   0.0000
    41 C41     -1.7864  -2.6985 -11.4834   C.ar      1 RES1   0.0000
    42 H42     -1.8145  -1.6442 -11.7382   H         1 RES1   0.0000
    43 N43     -2.3404  -4.7619  -8.7354   N.pl3     1 RES1   0.0000
    44 H44     -2.5296  -4.0394  -8.0408   H         1 RES1   0.0000
    45 C45     -1.4428  -3.5986 -12.4718   C.ar      1 RES1   0.0000
    46 H46     -1.2129  -3.2734 -13.4811   H         1 RES1   0.0000
    47 C47     -2.0310  -4.3711  -9.9821   C.ar      1 RES1   0.0000
    48 N48     -2.0881  -3.0541 -10.2279   N.ar      1 RES1   0.0000
    49 C49     -2.3615  -6.1567  -8.2952   C.3       1 RES1   0.0000
    50 H50     -1.3621  -6.5910  -8.4523   H         1 RES1   0.0000
    51 C51     -3.3744  -6.9881  -9.0576   C.ar      1 RES1   0.0000
    52 C52     -2.6653  -6.1655  -6.8016   C.3       1 RES1   0.0000
    53 H53     -2.6612  -7.1816  -6.4126   H         1 RES1   0.0000
    54 H54     -1.9240  -5.5893  -6.2519   H         1 RES1   0.0000
    55 H55     -3.6440  -5.7323  -6.6060   H         1 RES1   0.0000
    56 C56     -5.2443  -8.5031 -10.4607   C.ar      1 RES1   0.0000
    57 H57     -5.9721  -9.0932 -11.0078   H         1 RES1   0.0000
    58 C58     -4.5191  -6.4004  -9.5766   C.ar      1 RES1   0.0000
    59 H59     -4.6880  -5.3382  -9.4338   H         1 RES1   0.0000
    60 C60     -3.1834  -8.3493  -9.2514   C.ar      1 RES1   0.0000
    61 H61     -2.2967  -8.8313  -8.8532   H         1 RES1   0.0000
    62 C62     -4.1135  -9.1010  -9.9494   C.ar      1 RES1   0.0000
    63 H63     -3.9507 -10.1639 -10.0937   H         1 RES1   0.0000
    64 C64     -5.4477  -7.1534 -10.2748   C.ar      1 RES1   0.0000
    65 H65     -6.3371  -6.6793 -10.6763   H         1 RES1   0.0000
@<TRIPOS>BOND
     1     1     5   ar
     2     1     6   ar
     3     1     2    1
     4     3     8   ar
     5     3     9   ar
     6     3     4    1
     7     5     9   ar
     8     5    11    1
     9     6     8   ar
    10     6     7    1
    11     8    12    1
    12     9    10    1
    13    11    20    2
    14    11    23    1
    15    13    14    1
    16    13    23   am
    17    13    24    1
    18    14    31    1
    19    14    34    1
    20    14    15    1
    21    16    24    1
    22    16    17    1
    23    16    18    1
    24    16    19    1
    25    20    21    1
    26    20    24    1
    27    21    40   ar
    28    21    45   ar
    29    22    23    2
    30    25    34    1
    31    25    37    1
    32    25    26    1
    33    25    27    1
    34    28    31    1
    35    28    37    1
    36    28    29    1
    37    28    30    1
    38    31    32    1
    39    31    33    1
    40    34    35    1
    41    34    36    1
    42    37    38    1
    43    37    39    1
    44    40    47   ar
    45    41    45   ar
    46    41    48   ar
    47    41    42    1
    48    43    47    1
    49    43    49    1
    50    43    44    1
    51    45    46    1
    52    47    48   ar
    53    49    51    1
    54    49    52    1
    55    49    50    1
    56    51    58   ar
    57    51    60   ar
    58    52    53    1
    59    52    54    1
    60    52    55    1
    61    56    62   ar
    62    56    64   ar
    63    56    57    1
    64    58    64   ar
    65    58    59    1
    66    60    62   ar
    67    60    61    1
    68    62    63    1
    69    64    65    1
@<TRIPOS>SUBSTRUCTURE
     1 RES1        1 GROUP             0 ****  ****    0  
@<TRIPOS>MOLECULE
LIGAND_00046
    65    69     1     0     0
SMALL
USER_CHARGES
****
Generated from the CSD

@<TRIPOS>ATOM
     1 C1      -0.1870  -3.4032 -14.4002   C.ar      1 RES1   0.0000
     2 H2      -1.1645  -3.3365 -13.9349   H         1 RES1   0.0000
     3 C3       2.3187  -3.5420 -15.5551   C.ar      1 RES1   0.0000
     4 H4       3.3062  -3.5878 -16.0024   H         1 RES1   0.0000
     5 C5       0.3903  -4.6532 -14.6032   C.ar      1 RES1   0.0000
     6 C6       0.4630  -2.2407 -14.7750   C.ar      1 RES1   0.0000
     7 H7       0.0007  -1.2713 -14.6215   H         1 RES1   0.0000
     8 C8       1.7024  -2.3421 -15.3414   C.ar      1 RES1   0.0000
     9 C9       1.6526  -4.6970 -15.1885   C.ar      1 RES1   0.0000
    10 H10      2.1280  -5.6547 -15.3672   H         1 RES1   0.0000
    11 C11     -0.2999  -5.9210 -14.1991   C.2       1 RES1   0.0000
    12 F12      2.3500  -1.2025 -15.7074   F         1 RES1   0.0000
    13 N13     -1.2085  -7.9627 -14.1219   N.am      1 RES1   0.0000
    14 C14     -1.4237  -9.4446 -14.2417   C.3       1 RES1   0.0000
    15 H15     -0.8828  -9.7946 -15.1196   H         1 RES1   0.0000
    16 C16     -2.8702  -7.5647 -12.3650   C.3       1 RES1   0.0000
    17 H17     -3.1064  -6.8513 -11.5782   H         1 RES1   0.0000
    18 H18     -3.6513  -7.5067 -13.1203   H         1 RES1   0.0000
    19 H19     -2.8881  -8.5636 -11.9343   H         1 RES1   0.0000
    20 C20     -1.0688  -6.0097 -13.0848   C.2       1 RES1   0.0000
    21 C21     -1.4087  -4.9383 -12.1137   C.ar      1 RES1   0.0000
    22 O22      0.2130  -7.5851 -15.8992   O.2       1 RES1   0.0000
    23 C23     -0.3487  -7.1866 -14.8872   C.2       1 RES1   0.0000
    24 N24     -1.5598  -7.2772 -12.9494   N.3       1 RES1   0.0000
    25 C25     -1.0495 -11.6724 -13.1356   C.3       1 RES1   0.0000
    26 H26     -0.6815 -12.1551 -12.2315   H         1 RES1   0.0000
    27 H27     -0.4928 -12.0407 -13.9960   H         1 RES1   0.0000
    28 C28     -3.0840 -11.3105 -14.5074   C.3       1 RES1   0.0000
    29 H29     -2.5882 -11.6801 -15.4038   H         1 RES1   0.0000
    30 H30     -4.1480 -11.5359 -14.5621   H         1 RES1   0.0000
    31 C31     -2.8970  -9.8034 -14.4189   C.3       1 RES1   0.0000
    32 H32     -3.2678  -9.3440 -15.3340   H         1 RES1   0.0000
    33 H33     -3.4608  -9.4239 -13.5679   H         1 RES1   0.0000
    34 C34     -0.8622 -10.1698 -13.0181   C.3       1 RES1   0.0000
    35 H35     -1.3793  -9.8161 -12.1274   H         1 RES1   0.0000
    36 H36      0.2009  -9.9502 -12.9320   H         1 RES1   0.0000
    37 N37     -2.5009 -11.9861 -13.3112   N.4       1 RES1   1.0000
    38 H38     -3.0038 -11.6788 -12.4848   H         1 RES1   0.0000
    39 H39     -2.6076 -12.9898 -13.4184   H         1 RES1   0.0000
    40 N40     -2.7044  -4.6015 -12.0170   N.ar      1 RES1   0.0000
    41 C41     -0.8828  -3.3107 -10.4916   C.ar      1 RES1   0.0000
    42 H42     -0.1470  -2.8011  -9.8782   H         1 RES1   0.0000
    43 N43     -4.3133  -3.2636 -11.0790   N.pl3     1 RES1   0.0000
    44 H44     -4.9760  -3.7274 -11.7004   H         1 RES1   0.0000
    45 C45     -0.4438  -4.3003 -11.3480   C.ar      1 RES1   0.0000
    46 H46      0.6060  -4.5644 -11.4202   H         1 RES1   0.0000
    47 C47     -3.0204  -3.6162 -11.1612   C.ar      1 RES1   0.0000
    48 N48     -2.1657  -2.9439 -10.3765   N.ar      1 RES1   0.0000
    49 C49     -4.8216  -2.2116 -10.1989   C.3       1 RES1   0.0000
    50 H50     -4.0522  -1.4299 -10.1031   H         1 RES1   0.0000
    51 C51     -5.1588  -2.7292  -8.8144   C.ar      1 RES1   0.0000
    52 C52     -6.0502  -1.6043 -10.8660   C.3       1 RES1   0.0000
    53 H53     -6.4523  -0.7902 -10.2667   H         1 RES1   0.0000
    54 H54     -5.8023  -1.2105 -11.8495   H         1 RES1   0.0000
    55 H55     -6.8306  -2.3525 -10.9877   H         1 RES1   0.0000
    56 C56     -5.7886  -3.6902  -6.2767   C.ar      1 RES1   0.0000
    57 H57     -6.0333  -4.0649  -5.2883   H         1 RES1   0.0000
    58 C58     -6.1112  -3.7243  -8.6481   C.ar      1 RES1   0.0000
    59 H59     -6.6170  -4.1326  -9.5168   H         1 RES1   0.0000
    60 C60     -4.5285  -2.2215  -7.6867   C.ar      1 RES1   0.0000
    61 H61     -3.7815  -1.4416  -7.7917   H         1 RES1   0.0000
    62 C62     -4.8423  -2.7004  -6.4259   C.ar      1 RES1   0.0000
    63 H63     -4.3410  -2.2945  -5.5536   H         1 RES1   0.0000
    64 C64     -6.4232  -4.2025  -7.3868   C.ar      1 RES1   0.0000
    65 H65     -7.1689  -4.9822  -7.2729   H         1 RES1   0.0000
@<TRIPOS>BOND
     1     1     5   ar
     2     1     6   ar
     3     1     2    1
     4     3     8   ar
     5     3     9   ar
     6     3     4    1
     7     5     9   ar
     8     5    11    1
     9     6     8   ar
    10     6     7    1
    11     8    12    1
    12     9    10    1
    13    11    20    2
    14    11    23    1
    15    13    14    1
    16    13    23   am
    17    13    24    1
    18    14    31    1
    19    14    34    1
    20    14    15    1
    21    16    24    1
    22    16    17    1
    23    16    18    1
    24    16    19    1
    25    20    21    1
    26    20    24    1
    27    21    40   ar
    28    21    45   ar
    29    22    23    2
    30    25    34    1
    31    25    37    1
    32    25    26    1
    33    25    27    1
    34    28    31    1
    35    28    37    1
    36    28    29    1
    37    28    30    1
    38    31    32    1
    39    31    33    1
    40    34    35    1
    41    34    36    1
    42    37    38    1
    43    37    39    1
    44    40    47   ar
    45    41    45   ar
    46    41    48   ar
    47    41    42    1
    48    43    47    1
    49    43    49    1
    50    43    44    1
    51    45    46    1
    52    47    48   ar
    53    49    51    1
    54    49    52    1
    55    49    50    1
    56    51    58   ar
    57    51    60   ar
    58    52    53    1
    59    52    54    1
    60    52    55    1
    61    56    62   ar
    62    56    64   ar
    63    56    57    1
    64    58    64   ar
    65    58    59    1
    66    60    62   ar
    67    60    61    1
    68    62    63    1
    69    64    65    1
@<TRIPOS>SUBSTRUCTURE
     1 RES1        1 GROUP             0 ****  ****    0  
@<TRIPOS>MOLECULE
LIGAND_00047
    65    69     1     0     0
SMALL
USER_CHARGES
****
Generated from the CSD

@<TRIPOS>ATOM
     1 C1      -3.0718  -3.8325 -15.3609   C.ar      1 RES1   0.0000
     2 H2      -3.8939  -4.2504 -14.7900   H         1 RES1   0.0000
     3 C3      -0.9847  -2.7273 -16.7942   C.ar      1 RES1   0.0000
     4 H4      -0.1678  -2.2831 -17.3532   H         1 RES1   0.0000
     5 C5      -1.8481  -4.4951 -15.3838   C.ar      1 RES1   0.0000
     6 C6      -3.2611  -2.6464 -16.0478   C.ar      1 RES1   0.0000
     7 H7      -4.2216  -2.1422 -16.0319   H         1 RES1   0.0000
     8 C8      -2.2088  -2.1237 -16.7454   C.ar      1 RES1   0.0000
     9 C9      -0.8127  -3.9192 -16.1145   C.ar      1 RES1   0.0000
    10 H10      0.1515  -4.4128 -16.1590   H         1 RES1   0.0000
    11 C11     -1.6269  -5.7786 -14.6417   C.2       1 RES1   0.0000
    12 F12     -2.3862  -0.9546 -17.4189   F         1 RES1   0.0000
    13 N13     -1.2275  -7.9377 -14.1568   N.am      1 RES1   0.0000
    14 C14     -1.4824  -9.4110 -14.3017   C.3       1 RES1   0.0000
    15 H15     -1.1968  -9.7057 -15.3104   H         1 RES1   0.0000
    16 C16     -0.8628  -7.6843 -11.7813   C.3       1 RES1   0.0000
    17 H17     -1.4306  -8.4050 -11.1964   H         1 RES1   0.0000
    18 H18      0.0836  -8.1440 -12.0587   H         1 RES1   0.0000
    19 H19     -0.6501  -6.8254 -11.1482   H         1 RES1   0.0000
    20 C20     -1.7513  -5.9390 -13.3057   C.2       1 RES1   0.0000
    21 C21     -2.0254  -4.9138 -12.2663   C.ar      1 RES1   0.0000
    22 O22     -1.1931  -7.3975 -16.3900   O.2       1 RES1   0.0000
    23 C23     -1.3106  -7.0551 -15.2207   C.2       1 RES1   0.0000
    24 N24     -1.6113  -7.2770 -12.9708   N.3       1 RES1   0.0000
    25 C25     -0.8525 -11.6984 -13.4661   C.3       1 RES1   0.0000
    26 H26     -0.2634 -12.2316 -12.7214   H         1 RES1   0.0000
    27 H27     -0.5472 -12.0122 -14.4632   H         1 RES1   0.0000
    28 C28     -3.1735 -11.2667 -14.2268   C.3       1 RES1   0.0000
    29 H29     -2.9364 -11.5800 -15.2425   H         1 RES1   0.0000
    30 H30     -4.2163 -11.4941 -14.0109   H         1 RES1   0.0000
    31 C31     -2.9537  -9.7665 -14.1031   C.3       1 RES1   0.0000
    32 H32     -3.5486  -9.2558 -14.8589   H         1 RES1   0.0000
    33 H33     -3.2682  -9.4409 -13.1126   H         1 RES1   0.0000
    34 C34     -0.6249 -10.2043 -13.3149   C.3       1 RES1   0.0000
    35 H35     -0.8840  -9.9066 -12.3000   H         1 RES1   0.0000
    36 H36      0.4254  -9.9846 -13.5007   H         1 RES1   0.0000
    37 N37     -2.3018 -12.0087 -13.2692   N.4       1 RES1   1.0000
    38 H38     -2.5649 -11.7534 -12.3227   H         1 RES1   0.0000
    39 H39     -2.4437 -13.0049 -13.4027   H         1 RES1   0.0000
    40 N40     -2.7110  -5.3194 -11.1860   N.ar      1 RES1   0.0000
    41 C41     -1.9384  -2.7348 -11.3712   C.ar      1 RES1   0.0000
    42 H42     -1.6199  -1.7005 -11.4495   H         1 RES1   0.0000
    43 N43     -3.6913  -4.7948  -9.1804   N.pl3     1 RES1   0.0000
    44 H44     -4.0309  -5.7564  -9.1627   H         1 RES1   0.0000
    45 C45     -1.6108  -3.5967 -12.3985   C.ar      1 RES1   0.0000
    46 H46     -1.0576  -3.2589 -13.2686   H         1 RES1   0.0000
    47 C47     -2.9872  -4.3954 -10.2516   C.ar      1 RES1   0.0000
    48 N48     -2.6281  -3.1038 -10.2841   N.ar      1 RES1   0.0000
    49 C49     -4.0559  -3.9197  -8.0665   C.3       1 RES1   0.0000
    50 H50     -4.6788  -3.0981  -8.4528   H         1 RES1   0.0000
    51 C51     -2.8432  -3.3238  -7.3789   C.ar      1 RES1   0.0000
    52 C52     -4.8873  -4.7400  -7.0871   C.3       1 RES1   0.0000
    53 H53     -5.2145  -4.1267  -6.2502   H         1 RES1   0.0000
    54 H54     -5.7707  -5.1469  -7.5747   H         1 RES1   0.0000
    55 H55     -4.3062  -5.5703  -6.6913   H         1 RES1   0.0000
    56 C56     -0.6066  -2.2413  -6.1194   C.ar      1 RES1   0.0000
    57 H57      0.2646  -1.8193  -5.6294   H         1 RES1   0.0000
    58 C58     -1.6417  -4.0168  -7.3463   C.ar      1 RES1   0.0000
    59 H59     -1.5727  -4.9922  -7.8165   H         1 RES1   0.0000
    60 C60     -2.9060  -2.0793  -6.7672   C.ar      1 RES1   0.0000
    61 H61     -3.8353  -1.5194  -6.7783   H         1 RES1   0.0000
    62 C62     -1.7934  -1.5423  -6.1419   C.ar      1 RES1   0.0000
    63 H63     -1.8571  -0.5682  -5.6685   H         1 RES1   0.0000
    64 C64     -0.5300  -3.4780  -6.7212   C.ar      1 RES1   0.0000
    65 H65      0.4032  -4.0313  -6.7055   H         1 RES1   0.0000
@<TRIPOS>BOND
     1     1     5   ar
     2     1     6   ar
     3     1     2    1
     4     3     8   ar
     5     3     9   ar
     6     3     4    1
     7     5     9   ar
     8     5    11    1
     9     6     8   ar
    10     6     7    1
    11     8    12    1
    12     9    10    1
    13    11    20    2
    14    11    23    1
    15    13    14    1
    16    13    23   am
    17    13    24    1
    18    14    31    1
    19    14    34    1
    20    14    15    1
    21    16    24    1
    22    16    17    1
    23    16    18    1
    24    16    19    1
    25    20    21    1
    26    20    24    1
    27    21    40   ar
    28    21    45   ar
    29    22    23    2
    30    25    34    1
    31    25    37    1
    32    25    26    1
    33    25    27    1
    34    28    31    1
    35    28    37    1
    36    28    29    1
    37    28    30    1
    38    31    32    1
    39    31    33    1
    40    34    35    1
    41    34    36    1
    42    37    38    1
    43    37    39    1
    44    40    47   ar
    45    41    45   ar
    46    41    48   ar
    47    41    42    1
    48    43    47    1
    49    43    49    1
    50    43    44    1
    51    45    46    1
    52    47    48   ar
    53    49    51    1
    54    49    52    1
    55    49    50    1
    56    51    58   ar
    57    51    60   ar
    58    52    53    1
    59    52    54    1
    60    52    55    1
    61    56    62   ar
    62    56    64   ar
    63    56    57    1
    64    58    64   ar
    65    58    59    1
    66    60    62   ar
    67    60    61    1
    68    62    63    1
    69    64    65    1
@<TRIPOS>SUBSTRUCTURE
     1 RES1        1 GROUP             0 ****  ****    0  
@<TRIPOS>MOLECULE
LIGAND_00048
    65    69     1     0     0
SMALL
USER_CHARGES
****
Generated from the CSD

@<TRIPOS>ATOM
     1 C1      -0.7027  -3.3903 -14.9781   C.ar      1 RES1   0.0000
     2 H2      -1.7635  -3.4211 -14.7543   H         1 RES1   0.0000
     3 C3       2.0037  -3.2747 -15.5205   C.ar      1 RES1   0.0000
     4 H4       3.0672  -3.2194 -15.7282   H         1 RES1   0.0000
     5 C5       0.0599  -4.5461 -14.8386   C.ar      1 RES1   0.0000
     6 C6      -0.1343  -2.1985 -15.3916   C.ar      1 RES1   0.0000
     7 H7      -0.7388  -1.3050 -15.5067   H         1 RES1   0.0000
     8 C8       1.2073  -2.1727 -15.6497   C.ar      1 RES1   0.0000
     9 C9       1.4207  -4.4628 -15.1196   C.ar      1 RES1   0.0000
    10 H10      2.0424  -5.3462 -15.0278   H         1 RES1   0.0000
    11 C11     -0.5410  -5.8434 -14.3880   C.2       1 RES1   0.0000
    12 F12      1.7741  -1.0026 -16.0515   F         1 RES1   0.0000
    13 N13     -1.2406  -7.9410 -14.1570   N.am      1 RES1   0.0000
    14 C14     -1.5106  -9.4109 -14.3092   C.3       1 RES1   0.0000
    15 H15     -1.0788  -9.7376 -15.2541   H         1 RES1   0.0000
    16 C16     -2.0882  -7.8386 -11.7803   C.3       1 RES1   0.0000
    17 H17     -2.6360  -7.1177 -11.1770   H         1 RES1   0.0000
    18 H18     -2.7550  -8.6687 -12.0043   H         1 RES1   0.0000
    19 H19     -1.2602  -8.2193 -11.1861   H         1 RES1   0.0000
    20 C20     -1.1594  -5.9688 -13.1688   C.2       1 RES1   0.0000
    21 C21     -1.4160  -4.9157 -12.1531   C.ar      1 RES1   0.0000
    22 O22     -0.1808  -7.5094 -16.1020   O.2       1 RES1   0.0000
    23 C23     -0.6007  -7.1206 -15.0199   C.2       1 RES1   0.0000
    24 N24     -1.5984  -7.2184 -13.0119   N.pl3     1 RES1   0.0000
    25 C25     -1.0831 -11.6911 -13.3372   C.3       1 RES1   0.0000
    26 H26     -0.6330 -12.2197 -12.4982   H         1 RES1   0.0000
    27 H27     -0.6342 -12.0371 -14.2671   H         1 RES1   0.0000
    28 C28     -3.2435 -11.2227 -14.4622   C.3       1 RES1   0.0000
    29 H29     -2.8590 -11.5671 -15.4212   H         1 RES1   0.0000
    30 H30     -4.3132 -11.4194 -14.4082   H         1 RES1   0.0000
    31 C31     -3.0042  -9.7256 -14.3370   C.3       1 RES1   0.0000
    32 H32     -3.4589  -9.2199 -15.1875   H         1 RES1   0.0000
    33 H33     -3.4607  -9.3678 -13.4153   H         1 RES1   0.0000
    34 C34     -0.8405 -10.1997 -13.1835   C.3       1 RES1   0.0000
    35 H35     -1.2471  -9.8704 -12.2284   H         1 RES1   0.0000
    36 H36      0.2316 -10.0101 -13.2064   H         1 RES1   0.0000
    37 N37     -2.5535 -11.9614 -13.3641   N.4       1 RES1   1.0000
    38 H38     -2.9544 -11.6761 -12.4763   H         1 RES1   0.0000
    39 H39     -2.7003 -12.9568 -13.4974   H         1 RES1   0.0000
    40 N40     -2.6992  -4.6898 -11.8302   N.ar      1 RES1   0.0000
    41 C41     -0.7580  -3.2243 -10.6488   C.ar      1 RES1   0.0000
    42 H42      0.0265  -2.6440 -10.1743   H         1 RES1   0.0000
    43 N43     -4.2293  -3.4806 -10.6241   N.pl3     1 RES1   0.0000
    44 H44     -4.4248  -2.8089  -9.8818   H         1 RES1   0.0000
    45 C45     -0.3913  -4.1856 -11.5689   C.ar      1 RES1   0.0000
    46 H46      0.6486  -4.3597 -11.8246   H         1 RES1   0.0000
    47 C47     -2.9451  -3.7222 -10.9322   C.ar      1 RES1   0.0000
    48 N48     -2.0280  -2.9671 -10.3100   N.ar      1 RES1   0.0000
    49 C49     -5.3637  -4.1666 -11.2423   C.3       1 RES1   0.0000
    50 H50     -5.2561  -5.2491 -11.0726   H         1 RES1   0.0000
    51 C51     -5.4452  -3.9180 -12.7357   C.ar      1 RES1   0.0000
    52 C52     -6.6304  -3.6889 -10.5420   C.3       1 RES1   0.0000
    53 H53     -7.5122  -4.1500 -10.9820   H         1 RES1   0.0000
    54 H54     -6.6076  -3.9425  -9.4843   H         1 RES1   0.0000
    55 H55     -6.7338  -2.6094 -10.6293   H         1 RES1   0.0000
    56 C56     -5.6031  -3.4481 -15.4770   C.ar      1 RES1   0.0000
    57 H57     -5.6638  -3.2649 -16.5446   H         1 RES1   0.0000
    58 C58     -6.0975  -2.7965 -13.2276   C.ar      1 RES1   0.0000
    59 H59     -6.5518  -2.0946 -12.5362   H         1 RES1   0.0000
    60 C60     -4.8750  -4.8022 -13.6412   C.ar      1 RES1   0.0000
    61 H61     -4.3613  -5.6870 -13.2802   H         1 RES1   0.0000
    62 C62     -4.9540  -4.5671 -15.0035   C.ar      1 RES1   0.0000
    63 H63     -4.5030  -5.2666 -15.6996   H         1 RES1   0.0000
    64 C64     -6.1748  -2.5628 -14.5900   C.ar      1 RES1   0.0000
    65 H65     -6.6866  -1.6804 -14.9594   H         1 RES1   0.0000
@<TRIPOS>BOND
     1     1     5   ar
     2     1     6   ar
     3     1     2    1
     4     3     8   ar
     5     3     9   ar
     6     3     4    1
     7     5     9   ar
     8     5    11    1
     9     6     8   ar
    10     6     7    1
    11     8    12    1
    12     9    10    1
    13    11    20    2
    14    11    23    1
    15    13    14    1
    16    13    23   am
    17    13    24    1
    18    14    31    1
    19    14    34    1
    20    14    15    1
    21    16    24    1
    22    16    17    1
    23    16    18    1
    24    16    19    1
    25    20    21    1
    26    20    24    1
    27    21    40   ar
    28    21    45   ar
    29    22    23    2
    30    25    34    1
    31    25    37    1
    32    25    26    1
    33    25    27    1
    34    28    31    1
    35    28    37    1
    36    28    29    1
    37    28    30    1
    38    31    32    1
    39    31    33    1
    40    34    35    1
    41    34    36    1
    42    37    38    1
    43    37    39    1
    44    40    47   ar
    45    41    45   ar
    46    41    48   ar
    47    41    42    1
    48    43    47    1
    49    43    49    1
    50    43    44    1
    51    45    46    1
    52    47    48   ar
    53    49    51    1
    54    49    52    1
    55    49    50    1
    56    51    58   ar
    57    51    60   ar
    58    52    53    1
    59    52    54    1
    60    52    55    1
    61    56    62   ar
    62    56    64   ar
    63    56    57    1
    64    58    64   ar
    65    58    59    1
    66    60    62   ar
    67    60    61    1
    68    62    63    1
    69    64    65    1
@<TRIPOS>SUBSTRUCTURE
     1 RES1        1 GROUP             0 ****  ****    0  
@<TRIPOS>MOLECULE
LIGAND_00049
    65    69     1     0     0
SMALL
USER_CHARGES
****
Generated from the CSD

@<TRIPOS>ATOM
     1 C1      -0.7027  -3.3903 -14.9781   C.ar      1 RES1   0.0000
     2 H2      -1.7635  -3.4211 -14.7543   H         1 RES1   0.0000
     3 C3       2.0037  -3.2747 -15.5205   C.ar      1 RES1   0.0000
     4 H4       3.0672  -3.2194 -15.7282   H         1 RES1   0.0000
     5 C5       0.0599  -4.5461 -14.8386   C.ar      1 RES1   0.0000
     6 C6      -0.1343  -2.1985 -15.3916   C.ar      1 RES1   0.0000
     7 H7      -0.7388  -1.3050 -15.5067   H         1 RES1   0.0000
     8 C8       1.2073  -2.1727 -15.6497   C.ar      1 RES1   0.0000
     9 C9       1.4207  -4.4628 -15.1196   C.ar      1 RES1   0.0000
    10 H10      2.0424  -5.3462 -15.0278   H         1 RES1   0.0000
    11 C11     -0.5410  -5.8434 -14.3880   C.2       1 RES1   0.0000
    12 F12      1.7741  -1.0026 -16.0515   F         1 RES1   0.0000
    13 N13     -1.2406  -7.9410 -14.1570   N.am      1 RES1   0.0000
    14 C14     -1.5106  -9.4109 -14.3092   C.3       1 RES1   0.0000
    15 H15     -1.0786  -9.7377 -15.2540   H         1 RES1   0.0000
    16 C16     -2.0882  -7.8386 -11.7803   C.3       1 RES1   0.0000
    17 H17     -2.6356  -7.1176 -11.1768   H         1 RES1   0.0000
    18 H18     -2.7554  -8.6685 -12.0043   H         1 RES1   0.0000
    19 H19     -1.2602  -8.2197 -11.1863   H         1 RES1   0.0000
    20 C20     -1.1594  -5.9688 -13.1688   C.2       1 RES1   0.0000
    21 C21     -1.4160  -4.9157 -12.1531   C.ar      1 RES1   0.0000
    22 O22     -0.1808  -7.5094 -16.1020   O.2       1 RES1   0.0000
    23 C23     -0.6007  -7.1206 -15.0199   C.2       1 RES1   0.0000
    24 N24     -1.5984  -7.2184 -13.0119   N.pl3     1 RES1   0.0000
    25 C25     -1.0834 -11.6911 -13.3370   C.3       1 RES1   0.0000
    26 H26     -0.6335 -12.2196 -12.4979   H         1 RES1   0.0000
    27 H27     -0.6343 -12.0371 -14.2668   H         1 RES1   0.0000
    28 C28     -3.2435 -11.2227 -14.4625   C.3       1 RES1   0.0000
    29 H29     -2.8589 -11.5671 -15.4214   H         1 RES1   0.0000
    30 H30     -4.3132 -11.4193 -14.4087   H         1 RES1   0.0000
    31 C31     -3.0042  -9.7256 -14.3373   C.3       1 RES1   0.0000
    32 H32     -3.4587  -9.2199 -15.1879   H         1 RES1   0.0000
    33 H33     -3.4609  -9.3678 -13.4157   H         1 RES1   0.0000
    34 C34     -0.8408 -10.1997 -13.1833   C.3       1 RES1   0.0000
    35 H35     -1.2475  -9.8704 -12.2283   H         1 RES1   0.0000
    36 H36      0.2313 -10.0101 -13.2060   H         1 RES1   0.0000
    37 N37     -2.5537 -11.9613 -13.3642   N.4       1 RES1   1.0000
    38 H38     -2.9548 -11.6760 -12.4765   H         1 RES1   0.0000
    39 H39     -2.7006 -12.9568 -13.4975   H         1 RES1   0.0000
    40 N40     -2.6992  -4.6898 -11.8302   N.ar      1 RES1   0.0000
    41 C41     -0.7580  -3.2243 -10.6488   C.ar      1 RES1   0.0000
    42 H42      0.0265  -2.6440 -10.1743   H         1 RES1   0.0000
    43 N43     -4.2293  -3.4806 -10.6241   N.pl3     1 RES1   0.0000
    44 H44     -4.9488  -3.9779 -11.1489   H         1 RES1   0.0000
    45 C45     -0.3913  -4.1856 -11.5689   C.ar      1 RES1   0.0000
    46 H46      0.6486  -4.3597 -11.8246   H         1 RES1   0.0000
    47 C47     -2.9451  -3.7222 -10.9322   C.ar      1 RES1   0.0000
    48 N48     -2.0280  -2.9671 -10.3100   N.ar      1 RES1   0.0000
    49 C49     -4.6628  -2.5026  -9.6265   C.3       1 RES1   0.0000
    50 H50     -4.2704  -1.5134  -9.9090   H         1 RES1   0.0000
    51 C51     -4.1669  -2.8388  -8.2339   C.ar      1 RES1   0.0000
    52 C52     -6.1857  -2.4491  -9.6628   C.3       1 RES1   0.0000
    53 H53     -6.5654  -1.7512  -8.9195   H         1 RES1   0.0000
    54 H54     -6.5390  -2.1283 -10.6405   H         1 RES1   0.0000
    55 H55     -6.6095  -3.4292  -9.4544   H         1 RES1   0.0000
    56 C56     -3.2679  -3.4660  -5.6729   C.ar      1 RES1   0.0000
    57 H57     -2.9172  -3.7108  -4.6757   H         1 RES1   0.0000
    58 C58     -4.8827  -3.7077  -7.4229   C.ar      1 RES1   0.0000
    59 H59     -5.8039  -4.1475  -7.7906   H         1 RES1   0.0000
    60 C60     -2.9933  -2.2871  -7.7388   C.ar      1 RES1   0.0000
    61 H61     -2.4174  -1.6037  -8.3540   H         1 RES1   0.0000
    62 C62     -2.5474  -2.6001  -6.4658   C.ar      1 RES1   0.0000
    63 H63     -1.6279  -2.1618  -6.0923   H         1 RES1   0.0000
    64 C64     -4.4351  -4.0200  -6.1506   C.ar      1 RES1   0.0000
    65 H65     -5.0049  -4.7025  -5.5288   H         1 RES1   0.0000
@<TRIPOS>BOND
     1     1     5   ar
     2     1     6   ar
     3     1     2    1
     4     3     8   ar
     5     3     9   ar
     6     3     4    1
     7     5     9   ar
     8     5    11    1
     9     6     8   ar
    10     6     7    1
    11     8    12    1
    12     9    10    1
    13    11    20    2
    14    11    23    1
    15    13    14    1
    16    13    23   am
    17    13    24    1
    18    14    31    1
    19    14    34    1
    20    14    15    1
    21    16    24    1
    22    16    17    1
    23    16    18    1
    24    16    19    1
    25    20    21    1
    26    20    24    1
    27    21    40   ar
    28    21    45   ar
    29    22    23    2
    30    25    34    1
    31    25    37    1
    32    25    26    1
    33    25    27    1
    34    28    31    1
    35    28    37    1
    36    28    29    1
    37    28    30    1
    38    31    32    1
    39    31    33    1
    40    34    35    1
    41    34    36    1
    42    37    38    1
    43    37    39    1
    44    40    47   ar
    45    41    45   ar
    46    41    48   ar
    47    41    42    1
    48    43    47    1
    49    43    49    1
    50    43    44    1
    51    45    46    1
    52    47    48   ar
    53    49    51    1
    54    49    52    1
    55    49    50    1
    56    51    58   ar
    57    51    60   ar
    58    52    53    1
    59    52    54    1
    60    52    55    1
    61    56    62   ar
    62    56    64   ar
    63    56    57    1
    64    58    64   ar
    65    58    59    1
    66    60    62   ar
    67    60    61    1
    68    62    63    1
    69    64    65    1
@<TRIPOS>SUBSTRUCTURE
     1 RES1        1 GROUP             0 ****  ****    0  
@<TRIPOS>MOLECULE
LIGAND_00050
    65    69     1     0     0
SMALL
USER_CHARGES
****
Generated from the CSD

@<TRIPOS>ATOM
     1 C1      -3.0720  -3.8326 -15.3609   C.ar      1 RES1   0.0000
     2 H2      -3.8941  -4.2505 -14.7899   H         1 RES1   0.0000
     3 C3      -0.9851  -2.7273 -16.7943   C.ar      1 RES1   0.0000
     4 H4      -0.1682  -2.2830 -17.3534   H         1 RES1   0.0000
     5 C5      -1.8483  -4.4951 -15.3838   C.ar      1 RES1   0.0000
     6 C6      -3.2614  -2.6466 -16.0478   C.ar      1 RES1   0.0000
     7 H7      -4.2219  -2.1424 -16.0318   H         1 RES1   0.0000
     8 C8      -2.2092  -2.1238 -16.7455   C.ar      1 RES1   0.0000
     9 C9      -0.8129  -3.9192 -16.1146   C.ar      1 RES1   0.0000
    10 H10      0.1512  -4.4128 -16.1591   H         1 RES1   0.0000
    11 C11     -1.6270  -5.7786 -14.6417   C.2       1 RES1   0.0000
    12 F12     -2.3867  -0.9547 -17.4189   F         1 RES1   0.0000
    13 N13     -1.2274  -7.9377 -14.1568   N.am      1 RES1   0.0000
    14 C14     -1.4822  -9.4110 -14.3016   C.3       1 RES1   0.0000
    15 H15     -1.1966  -9.7057 -15.3103   H         1 RES1   0.0000
    16 C16     -0.8626  -7.6842 -11.7813   C.3       1 RES1   0.0000
    17 H17     -1.4303  -8.4050 -11.1964   H         1 RES1   0.0000
    18 H18      0.0838  -8.1439 -12.0587   H         1 RES1   0.0000
    19 H19     -0.6500  -6.8254 -11.1482   H         1 RES1   0.0000
    20 C20     -1.7513  -5.9390 -13.3057   C.2       1 RES1   0.0000
    21 C21     -2.0254  -4.9138 -12.2663   C.ar      1 RES1   0.0000
    22 O22     -1.1932  -7.3975 -16.3900   O.2       1 RES1   0.0000
    23 C23     -1.3106  -7.0551 -15.2207   C.2       1 RES1   0.0000
    24 N24     -1.6112  -7.2770 -12.9708   N.3       1 RES1   0.0000
    25 C25     -0.8522 -11.6983 -13.4661   C.3       1 RES1   0.0000
    26 H26     -0.2631 -12.2316 -12.7214   H         1 RES1   0.0000
    27 H27     -0.5469 -12.0121 -14.4632   H         1 RES1   0.0000
    28 C28     -3.1733 -11.2667 -14.2267   C.3       1 RES1   0.0000
    29 H29     -2.9362 -11.5801 -15.2423   H         1 RES1   0.0000
    30 H30     -4.2161 -11.4942 -14.0107   H         1 RES1   0.0000
    31 C31     -2.9536  -9.7665 -14.1030   C.3       1 RES1   0.0000
    32 H32     -3.5485  -9.2559 -14.8589   H         1 RES1   0.0000
    33 H33     -3.2681  -9.4410 -13.1126   H         1 RES1   0.0000
    34 C34     -0.6247 -10.2043 -13.3149   C.3       1 RES1   0.0000
    35 H35     -0.8838  -9.9065 -12.3000   H         1 RES1   0.0000
    36 H36      0.4256  -9.9845 -13.5007   H         1 RES1   0.0000
    37 N37     -2.3015 -12.0088 -13.2691   N.4       1 RES1   1.0000
    38 H38     -2.5646 -11.7535 -12.3226   H         1 RES1   0.0000
    39 H39     -2.4434 -13.0049 -13.4026   H         1 RES1   0.0000
    40 N40     -2.7110  -5.3194 -11.1860   N.ar      1 RES1   0.0000
    41 C41     -1.9384  -2.7348 -11.3712   C.ar      1 RES1   0.0000
    42 H42     -1.6199  -1.7005 -11.4495   H         1 RES1   0.0000
    43 N43     -3.6913  -4.7948  -9.1804   N.pl3     1 RES1   0.0000
    44 H44     -3.8544  -4.1173  -8.4356   H         1 RES1   0.0000
    45 C45     -1.6108  -3.5967 -12.3985   C.ar      1 RES1   0.0000
    46 H46     -1.0576  -3.2589 -13.2686   H         1 RES1   0.0000
    47 C47     -2.9872  -4.3954 -10.2516   C.ar      1 RES1   0.0000
    48 N48     -2.6281  -3.1038 -10.2841   N.ar      1 RES1   0.0000
    49 C49     -4.1852  -6.1578  -8.9858   C.3       1 RES1   0.0000
    50 H50     -3.3243  -6.8436  -8.9556   H         1 RES1   0.0000
    51 C51     -5.1155  -6.5998 -10.0983   C.ar      1 RES1   0.0000
    52 C52     -4.8913  -6.2054  -7.6359   C.3       1 RES1   0.0000
    53 H53     -5.2524  -7.2096  -7.4241   H         1 RES1   0.0000
    54 H54     -4.2162  -5.9121  -6.8348   H         1 RES1   0.0000
    55 H55     -5.7441  -5.5298  -7.6244   H         1 RES1   0.0000
    56 C56     -6.8346  -7.4000 -12.1391   C.ar      1 RES1   0.0000
    57 H57     -7.5037  -7.7114 -12.9344   H         1 RES1   0.0000
    58 C58     -6.2896  -5.9050 -10.3511   C.ar      1 RES1   0.0000
    59 H59     -6.5412  -5.0401  -9.7463   H         1 RES1   0.0000
    60 C60     -4.8182  -7.7046 -10.8842   C.ar      1 RES1   0.0000
    61 H61     -3.9066  -8.2647 -10.7041   H         1 RES1   0.0000
    62 C62     -5.6734  -8.1010 -11.8985   C.ar      1 RES1   0.0000
    63 H63     -5.4278  -8.9662 -12.5052   H         1 RES1   0.0000
    64 C64     -7.1432  -6.3024 -11.3662   C.ar      1 RES1   0.0000
    65 H65     -8.0568  -5.7479 -11.5529   H         1 RES1   0.0000
@<TRIPOS>BOND
     1     1     5   ar
     2     1     6   ar
     3     1     2    1
     4     3     8   ar
     5     3     9   ar
     6     3     4    1
     7     5     9   ar
     8     5    11    1
     9     6     8   ar
    10     6     7    1
    11     8    12    1
    12     9    10    1
    13    11    20    2
    14    11    23    1
    15    13    14    1
    16    13    23   am
    17    13    24    1
    18    14    31    1
    19    14    34    1
    20    14    15    1
    21    16    24    1
    22    16    17    1
    23    16    18    1
    24    16    19    1
    25    20    21    1
    26    20    24    1
    27    21    40   ar
    28    21    45   ar
    29    22    23    2
    30    25    34    1
    31    25    37    1
    32    25    26    1
    33    25    27    1
    34    28    31    1
    35    28    37    1
    36    28    29    1
    37    28    30    1
    38    31    32    1
    39    31    33    1
    40    34    35    1
    41    34    36    1
    42    37    38    1
    43    37    39    1
    44    40    47   ar
    45    41    45   ar
    46    41    48   ar
    47    41    42    1
    48    43    47    1
    49    43    49    1
    50    43    44    1
    51    45    46    1
    52    47    48   ar
    53    49    51    1
    54    49    52    1
    55    49    50    1
    56    51    58   ar
    57    51    60   ar
    58    52    53    1
    59    52    54    1
    60    52    55    1
    61    56    62   ar
    62    56    64   ar
    63    56    57    1
    64    58    64   ar
    65    58    59    1
    66    60    62   ar
    67    60    61    1
    68    62    63    1
    69    64    65    1
@<TRIPOS>SUBSTRUCTURE
     1 RES1        1 GROUP             0 ****  ****    0  
@<TRIPOS>MOLECULE
LIGAND_00051
    65    69     1     0     0
SMALL
USER_CHARGES
****
Generated from the CSD

@<TRIPOS>ATOM
     1 C1      -0.3701  -3.8964 -15.9918   C.ar      1 RES1   0.0000
     2 H2      -1.1642  -4.3349 -16.5863   H         1 RES1   0.0000
     3 C3       1.6297  -2.7392 -14.4773   C.ar      1 RES1   0.0000
     4 H4       2.4102  -2.2746 -13.8839   H         1 RES1   0.0000
     5 C5       0.0599  -4.5461 -14.8386   C.ar      1 RES1   0.0000
     6 C6       0.1911  -2.6974 -16.3942   C.ar      1 RES1   0.0000
     7 H7      -0.1441  -2.2032 -17.2999   H         1 RES1   0.0000
     8 C8       1.1764  -2.1489 -15.6225   C.ar      1 RES1   0.0000
     9 C9       1.0700  -3.9440 -14.0935   C.ar      1 RES1   0.0000
    10 H10      1.4331  -4.4269 -13.1935   H         1 RES1   0.0000
    11 C11     -0.5410  -5.8434 -14.3880   C.2       1 RES1   0.0000
    12 F12      1.7291  -0.9670 -16.0092   F         1 RES1   0.0000
    13 N13     -1.2406  -7.9410 -14.1570   N.am      1 RES1   0.0000
    14 C14     -1.5106  -9.4109 -14.3092   C.3       1 RES1   0.0000
    15 H15     -1.0788  -9.7377 -15.2540   H         1 RES1   0.0000
    16 C16     -2.0882  -7.8386 -11.7803   C.3       1 RES1   0.0000
    17 H17     -2.6361  -7.1177 -11.1770   H         1 RES1   0.0000
    18 H18     -2.7550  -8.6688 -12.0043   H         1 RES1   0.0000
    19 H19     -1.2602  -8.2192 -11.1860   H         1 RES1   0.0000
    20 C20     -1.1594  -5.9688 -13.1688   C.2       1 RES1   0.0000
    21 C21     -1.4160  -4.9157 -12.1531   C.ar      1 RES1   0.0000
    22 O22     -0.1808  -7.5094 -16.1020   O.2       1 RES1   0.0000
    23 C23     -0.6007  -7.1206 -15.0199   C.2       1 RES1   0.0000
    24 N24     -1.5984  -7.2184 -13.0119   N.pl3     1 RES1   0.0000
    25 C25     -1.0832 -11.6911 -13.3372   C.3       1 RES1   0.0000
    26 H26     -0.6331 -12.2196 -12.4981   H         1 RES1   0.0000
    27 H27     -0.6343 -12.0371 -14.2671   H         1 RES1   0.0000
    28 C28     -3.2435 -11.2227 -14.4623   C.3       1 RES1   0.0000
    29 H29     -2.8590 -11.5671 -15.4212   H         1 RES1   0.0000
    30 H30     -4.3132 -11.4194 -14.4083   H         1 RES1   0.0000
    31 C31     -3.0042  -9.7256 -14.3371   C.3       1 RES1   0.0000
    32 H32     -3.4589  -9.2199 -15.1876   H         1 RES1   0.0000
    33 H33     -3.4608  -9.3678 -13.4154   H         1 RES1   0.0000
    34 C34     -0.8406 -10.1997 -13.1835   C.3       1 RES1   0.0000
    35 H35     -1.2472  -9.8704 -12.2284   H         1 RES1   0.0000
    36 H36      0.2315 -10.0101 -13.2063   H         1 RES1   0.0000
    37 N37     -2.5535 -11.9614 -13.3641   N.4       1 RES1   1.0000
    38 H38     -2.9545 -11.6761 -12.4764   H         1 RES1   0.0000
    39 H39     -2.7004 -12.9568 -13.4974   H         1 RES1   0.0000
    40 N40     -2.5784  -4.2520 -12.2536   N.ar      1 RES1   0.0000
    41 C41     -0.8501  -3.6050 -10.2773   C.ar      1 RES1   0.0000
    42 H42     -0.1544  -3.3547  -9.4832   H         1 RES1   0.0000
    43 N43     -3.9628  -2.6010 -11.4687   N.pl3     1 RES1   0.0000
    44 H44     -4.1776  -1.9026 -10.7571   H         1 RES1   0.0000
    45 C45     -0.5032  -4.6139 -11.1531   C.ar      1 RES1   0.0000
    46 H46      0.4396  -5.1435 -11.0647   H         1 RES1   0.0000
    47 C47     -2.8100  -3.2801 -11.3565   C.ar      1 RES1   0.0000
    48 N48     -1.9968  -2.9172 -10.3539   N.ar      1 RES1   0.0000
    49 C49     -4.9591  -2.8440 -12.5118   C.3       1 RES1   0.0000
    50 H50     -5.3185  -3.8808 -12.4212   H         1 RES1   0.0000
    51 C51     -4.3958  -2.6485 -13.9057   C.ar      1 RES1   0.0000
    52 C52     -6.1299  -1.9007 -12.2616   C.3       1 RES1   0.0000
    53 H53     -6.9188  -2.0618 -12.9933   H         1 RES1   0.0000
    54 H54     -6.5497  -2.0585 -11.2704   H         1 RES1   0.0000
    55 H55     -5.8094  -0.8634 -12.3324   H         1 RES1   0.0000
    56 C56     -3.3509  -2.2787 -16.4614   C.ar      1 RES1   0.0000
    57 H57     -2.9436  -2.1354 -17.4568   H         1 RES1   0.0000
    58 C58     -3.3710  -1.7404 -14.1294   C.ar      1 RES1   0.0000
    59 H59     -2.9723  -1.1671 -13.2989   H         1 RES1   0.0000
    60 C60     -4.8904  -3.3672 -14.9854   C.ar      1 RES1   0.0000
    61 H61     -5.6929  -4.0817 -14.8353   H         1 RES1   0.0000
    62 C62     -4.3698  -3.1826 -16.2552   C.ar      1 RES1   0.0000
    63 H63     -4.7659  -3.7518 -17.0895   H         1 RES1   0.0000
    64 C64     -2.8512  -1.5576 -15.3995   C.ar      1 RES1   0.0000
    65 H65     -2.0487  -0.8451 -15.5583   H         1 RES1   0.0000
@<TRIPOS>BOND
     1     1     5   ar
     2     1     6   ar
     3     1     2    1
     4     3     8   ar
     5     3     9   ar
     6     3     4    1
     7     5     9   ar
     8     5    11    1
     9     6     8   ar
    10     6     7    1
    11     8    12    1
    12     9    10    1
    13    11    20    2
    14    11    23    1
    15    13    14    1
    16    13    23   am
    17    13    24    1
    18    14    31    1
    19    14    34    1
    20    14    15    1
    21    16    24    1
    22    16    17    1
    23    16    18    1
    24    16    19    1
    25    20    21    1
    26    20    24    1
    27    21    40   ar
    28    21    45   ar
    29    22    23    2
    30    25    34    1
    31    25    37    1
    32    25    26    1
    33    25    27    1
    34    28    31    1
    35    28    37    1
    36    28    29    1
    37    28    30    1
    38    31    32    1
    39    31    33    1
    40    34    35    1
    41    34    36    1
    42    37    38    1
    43    37    39    1
    44    40    47   ar
    45    41    45   ar
    46    41    48   ar
    47    41    42    1
    48    43    47    1
    49    43    49    1
    50    43    44    1
    51    45    46    1
    52    47    48   ar
    53    49    51    1
    54    49    52    1
    55    49    50    1
    56    51    58   ar
    57    51    60   ar
    58    52    53    1
    59    52    54    1
    60    52    55    1
    61    56    62   ar
    62    56    64   ar
    63    56    57    1
    64    58    64   ar
    65    58    59    1
    66    60    62   ar
    67    60    61    1
    68    62    63    1
    69    64    65    1
@<TRIPOS>SUBSTRUCTURE
     1 RES1        1 GROUP             0 ****  ****    0  
@<TRIPOS>MOLECULE
LIGAND_00052
    65    69     1     0     0
SMALL
USER_CHARGES
****
Generated from the CSD

@<TRIPOS>ATOM
     1 C1      -0.3701  -3.8964 -15.9918   C.ar      1 RES1   0.0000
     2 H2      -1.1642  -4.3349 -16.5863   H         1 RES1   0.0000
     3 C3       1.6297  -2.7392 -14.4773   C.ar      1 RES1   0.0000
     4 H4       2.4102  -2.2746 -13.8839   H         1 RES1   0.0000
     5 C5       0.0599  -4.5461 -14.8386   C.ar      1 RES1   0.0000
     6 C6       0.1911  -2.6974 -16.3942   C.ar      1 RES1   0.0000
     7 H7      -0.1441  -2.2032 -17.2999   H         1 RES1   0.0000
     8 C8       1.1764  -2.1489 -15.6225   C.ar      1 RES1   0.0000
     9 C9       1.0700  -3.9440 -14.0935   C.ar      1 RES1   0.0000
    10 H10      1.4331  -4.4269 -13.1935   H         1 RES1   0.0000
    11 C11     -0.5410  -5.8434 -14.3880   C.2       1 RES1   0.0000
    12 F12      1.7291  -0.9670 -16.0092   F         1 RES1   0.0000
    13 N13     -1.2406  -7.9410 -14.1570   N.am      1 RES1   0.0000
    14 C14     -1.5106  -9.4109 -14.3092   C.3       1 RES1   0.0000
    15 H15     -1.0788  -9.7377 -15.2540   H         1 RES1   0.0000
    16 C16     -2.0882  -7.8386 -11.7803   C.3       1 RES1   0.0000
    17 H17     -2.6361  -7.1177 -11.1770   H         1 RES1   0.0000
    18 H18     -2.7550  -8.6688 -12.0043   H         1 RES1   0.0000
    19 H19     -1.2602  -8.2192 -11.1860   H         1 RES1   0.0000
    20 C20     -1.1594  -5.9688 -13.1688   C.2       1 RES1   0.0000
    21 C21     -1.4160  -4.9157 -12.1531   C.ar      1 RES1   0.0000
    22 O22     -0.1808  -7.5094 -16.1020   O.2       1 RES1   0.0000
    23 C23     -0.6007  -7.1206 -15.0199   C.2       1 RES1   0.0000
    24 N24     -1.5984  -7.2184 -13.0119   N.pl3     1 RES1   0.0000
    25 C25     -1.0832 -11.6911 -13.3372   C.3       1 RES1   0.0000
    26 H26     -0.6331 -12.2196 -12.4981   H         1 RES1   0.0000
    27 H27     -0.6343 -12.0371 -14.2671   H         1 RES1   0.0000
    28 C28     -3.2435 -11.2227 -14.4623   C.3       1 RES1   0.0000
    29 H29     -2.8590 -11.5671 -15.4212   H         1 RES1   0.0000
    30 H30     -4.3132 -11.4194 -14.4083   H         1 RES1   0.0000
    31 C31     -3.0042  -9.7256 -14.3371   C.3       1 RES1   0.0000
    32 H32     -3.4589  -9.2199 -15.1876   H         1 RES1   0.0000
    33 H33     -3.4608  -9.3678 -13.4154   H         1 RES1   0.0000
    34 C34     -0.8406 -10.1997 -13.1835   C.3       1 RES1   0.0000
    35 H35     -1.2472  -9.8704 -12.2284   H         1 RES1   0.0000
    36 H36      0.2315 -10.0101 -13.2063   H         1 RES1   0.0000
    37 N37     -2.5535 -11.9614 -13.3641   N.4       1 RES1   1.0000
    38 H38     -2.9545 -11.6761 -12.4764   H         1 RES1   0.0000
    39 H39     -2.7004 -12.9568 -13.4974   H         1 RES1   0.0000
    40 N40     -0.4619  -4.7249 -11.2286   N.ar      1 RES1   0.0000
    41 C41     -2.7124  -3.2288 -11.1379   C.ar      1 RES1   0.0000
    42 H42     -3.6155  -2.6280 -11.1111   H         1 RES1   0.0000
    43 N43      0.2500  -3.6161  -9.3518   N.pl3     1 RES1   0.0000
    44 H44      0.1128  -2.8699  -8.6701   H         1 RES1   0.0000
    45 C45     -2.5846  -4.1682 -12.1411   C.ar      1 RES1   0.0000
    46 H46     -3.3622  -4.3161 -12.8831   H         1 RES1   0.0000
    47 C47     -0.6941  -3.7933 -10.2898   C.ar      1 RES1   0.0000
    48 N48     -1.7846  -3.0185 -10.1952   N.ar      1 RES1   0.0000
    49 C49      1.4927  -4.3846  -9.2843   C.3       1 RES1   0.0000
    50 H50      2.0633  -4.2142 -10.2104   H         1 RES1   0.0000
    51 C51      1.2446  -5.8730  -9.1373   C.ar      1 RES1   0.0000
    52 C52      2.3035  -3.8504  -8.1093   C.3       1 RES1   0.0000
    53 H53      3.2576  -4.3673  -8.0316   H         1 RES1   0.0000
    54 H54      2.5028  -2.7873  -8.2275   H         1 RES1   0.0000
    55 H55      1.7647  -3.9921  -7.1748   H         1 RES1   0.0000
    56 C56      0.7753  -8.6049  -8.8596   C.ar      1 RES1   0.0000
    57 H57      0.5923  -9.6689  -8.7522   H         1 RES1   0.0000
    58 C58      0.1113  -6.3361  -8.4844   C.ar      1 RES1   0.0000
    59 H59     -0.6002  -5.6257  -8.0767   H         1 RES1   0.0000
    60 C60      2.1408  -6.8024  -9.6470   C.ar      1 RES1   0.0000
    61 H61      3.0349  -6.4641 -10.1600   H         1 RES1   0.0000
    62 C62      1.9060  -8.1600  -9.5086   C.ar      1 RES1   0.0000
    63 H63      2.6150  -8.8750  -9.9127   H         1 RES1   0.0000
    64 C64     -0.1222  -7.6939  -8.3475   C.ar      1 RES1   0.0000
    65 H65     -1.0138  -8.0408  -7.8360   H         1 RES1   0.0000
@<TRIPOS>BOND
     1     1     5   ar
     2     1     6   ar
     3     1     2    1
     4     3     8   ar
     5     3     9   ar
     6     3     4    1
     7     5     9   ar
     8     5    11    1
     9     6     8   ar
    10     6     7    1
    11     8    12    1
    12     9    10    1
    13    11    20    2
    14    11    23    1
    15    13    14    1
    16    13    23   am
    17    13    24    1
    18    14    31    1
    19    14    34    1
    20    14    15    1
    21    16    24    1
    22    16    17    1
    23    16    18    1
    24    16    19    1
    25    20    21    1
    26    20    24    1
    27    21    40   ar
    28    21    45   ar
    29    22    23    2
    30    25    34    1
    31    25    37    1
    32    25    26    1
    33    25    27    1
    34    28    31    1
    35    28    37    1
    36    28    29    1
    37    28    30    1
    38    31    32    1
    39    31    33    1
    40    34    35    1
    41    34    36    1
    42    37    38    1
    43    37    39    1
    44    40    47   ar
    45    41    45   ar
    46    41    48   ar
    47    41    42    1
    48    43    47    1
    49    43    49    1
    50    43    44    1
    51    45    46    1
    52    47    48   ar
    53    49    51    1
    54    49    52    1
    55    49    50    1
    56    51    58   ar
    57    51    60   ar
    58    52    53    1
    59    52    54    1
    60    52    55    1
    61    56    62   ar
    62    56    64   ar
    63    56    57    1
    64    58    64   ar
    65    58    59    1
    66    60    62   ar
    67    60    61    1
    68    62    63    1
    69    64    65    1
@<TRIPOS>SUBSTRUCTURE
     1 RES1        1 GROUP             0 ****  ****    0  
@<TRIPOS>MOLECULE
LIGAND_00053
    65    69     1     0     0
SMALL
USER_CHARGES
****
Generated from the CSD

@<TRIPOS>ATOM
     1 C1      -0.7027  -3.3903 -14.9781   C.ar      1 RES1   0.0000
     2 H2      -1.7635  -3.4211 -14.7543   H         1 RES1   0.0000
     3 C3       2.0037  -3.2747 -15.5205   C.ar      1 RES1   0.0000
     4 H4       3.0672  -3.2194 -15.7282   H         1 RES1   0.0000
     5 C5       0.0599  -4.5461 -14.8386   C.ar      1 RES1   0.0000
     6 C6      -0.1343  -2.1985 -15.3916   C.ar      1 RES1   0.0000
     7 H7      -0.7388  -1.3050 -15.5067   H         1 RES1   0.0000
     8 C8       1.2073  -2.1727 -15.6497   C.ar      1 RES1   0.0000
     9 C9       1.4207  -4.4628 -15.1196   C.ar      1 RES1   0.0000
    10 H10      2.0424  -5.3462 -15.0278   H         1 RES1   0.0000
    11 C11     -0.5410  -5.8434 -14.3880   C.2       1 RES1   0.0000
    12 F12      1.7741  -1.0026 -16.0515   F         1 RES1   0.0000
    13 N13     -1.2406  -7.9410 -14.1570   N.am      1 RES1   0.0000
    14 C14     -1.5106  -9.4109 -14.3092   C.3       1 RES1   0.0000
    15 H15     -1.0788  -9.7377 -15.2540   H         1 RES1   0.0000
    16 C16     -2.0882  -7.8386 -11.7803   C.3       1 RES1   0.0000
    17 H17     -2.6361  -7.1177 -11.1770   H         1 RES1   0.0000
    18 H18     -2.7550  -8.6688 -12.0043   H         1 RES1   0.0000
    19 H19     -1.2602  -8.2192 -11.1860   H         1 RES1   0.0000
    20 C20     -1.1594  -5.9688 -13.1688   C.2       1 RES1   0.0000
    21 C21     -1.4160  -4.9157 -12.1531   C.ar      1 RES1   0.0000
    22 O22     -0.1808  -7.5094 -16.1020   O.2       1 RES1   0.0000
    23 C23     -0.6007  -7.1206 -15.0199   C.2       1 RES1   0.0000
    24 N24     -1.5984  -7.2184 -13.0119   N.pl3     1 RES1   0.0000
    25 C25     -1.0832 -11.6911 -13.3372   C.3       1 RES1   0.0000
    26 H26     -0.6331 -12.2196 -12.4981   H         1 RES1   0.0000
    27 H27     -0.6343 -12.0371 -14.2671   H         1 RES1   0.0000
    28 C28     -3.2435 -11.2227 -14.4623   C.3       1 RES1   0.0000
    29 H29     -2.8590 -11.5671 -15.4212   H         1 RES1   0.0000
    30 H30     -4.3132 -11.4194 -14.4083   H         1 RES1   0.0000
    31 C31     -3.0042  -9.7256 -14.3371   C.3       1 RES1   0.0000
    32 H32     -3.4589  -9.2199 -15.1876   H         1 RES1   0.0000
    33 H33     -3.4608  -9.3678 -13.4154   H         1 RES1   0.0000
    34 C34     -0.8406 -10.1997 -13.1835   C.3       1 RES1   0.0000
    35 H35     -1.2472  -9.8704 -12.2284   H         1 RES1   0.0000
    36 H36      0.2315 -10.0101 -13.2063   H         1 RES1   0.0000
    37 N37     -2.5535 -11.9614 -13.3641   N.4       1 RES1   1.0000
    38 H38     -2.9545 -11.6761 -12.4764   H         1 RES1   0.0000
    39 H39     -2.7004 -12.9568 -13.4974   H         1 RES1   0.0000
    40 N40     -0.4619  -4.7249 -11.2286   N.ar      1 RES1   0.0000
    41 C41     -2.7124  -3.2288 -11.1379   C.ar      1 RES1   0.0000
    42 H42     -3.6155  -2.6280 -11.1111   H         1 RES1   0.0000
    43 N43      0.2500  -3.6161  -9.3518   N.pl3     1 RES1   0.0000
    44 H44      0.1128  -2.8699  -8.6701   H         1 RES1   0.0000
    45 C45     -2.5846  -4.1682 -12.1411   C.ar      1 RES1   0.0000
    46 H46     -3.3622  -4.3161 -12.8831   H         1 RES1   0.0000
    47 C47     -0.6941  -3.7933 -10.2898   C.ar      1 RES1   0.0000
    48 N48     -1.7846  -3.0185 -10.1952   N.ar      1 RES1   0.0000
    49 C49      1.4927  -4.3846  -9.2843   C.3       1 RES1   0.0000
    50 H50      2.0633  -4.2142 -10.2104   H         1 RES1   0.0000
    51 C51      1.2446  -5.8730  -9.1373   C.ar      1 RES1   0.0000
    52 C52      2.3035  -3.8504  -8.1093   C.3       1 RES1   0.0000
    53 H53      3.2576  -4.3673  -8.0316   H         1 RES1   0.0000
    54 H54      2.5028  -2.7873  -8.2275   H         1 RES1   0.0000
    55 H55      1.7647  -3.9921  -7.1748   H         1 RES1   0.0000
    56 C56      0.7753  -8.6049  -8.8596   C.ar      1 RES1   0.0000
    57 H57      0.5923  -9.6689  -8.7522   H         1 RES1   0.0000
    58 C58      0.1113  -6.3361  -8.4844   C.ar      1 RES1   0.0000
    59 H59     -0.6002  -5.6257  -8.0767   H         1 RES1   0.0000
    60 C60      2.1408  -6.8024  -9.6470   C.ar      1 RES1   0.0000
    61 H61      3.0349  -6.4641 -10.1600   H         1 RES1   0.0000
    62 C62      1.9060  -8.1600  -9.5086   C.ar      1 RES1   0.0000
    63 H63      2.6150  -8.8750  -9.9127   H         1 RES1   0.0000
    64 C64     -0.1222  -7.6939  -8.3475   C.ar      1 RES1   0.0000
    65 H65     -1.0138  -8.0408  -7.8360   H         1 RES1   0.0000
@<TRIPOS>BOND
     1     1     5   ar
     2     1     6   ar
     3     1     2    1
     4     3     8   ar
     5     3     9   ar
     6     3     4    1
     7     5     9   ar
     8     5    11    1
     9     6     8   ar
    10     6     7    1
    11     8    12    1
    12     9    10    1
    13    11    20    2
    14    11    23    1
    15    13    14    1
    16    13    23   am
    17    13    24    1
    18    14    31    1
    19    14    34    1
    20    14    15    1
    21    16    24    1
    22    16    17    1
    23    16    18    1
    24    16    19    1
    25    20    21    1
    26    20    24    1
    27    21    40   ar
    28    21    45   ar
    29    22    23    2
    30    25    34    1
    31    25    37    1
    32    25    26    1
    33    25    27    1
    34    28    31    1
    35    28    37    1
    36    28    29    1
    37    28    30    1
    38    31    32    1
    39    31    33    1
    40    34    35    1
    41    34    36    1
    42    37    38    1
    43    37    39    1
    44    40    47   ar
    45    41    45   ar
    46    41    48   ar
    47    41    42    1
    48    43    47    1
    49    43    49    1
    50    43    44    1
    51    45    46    1
    52    47    48   ar
    53    49    51    1
    54    49    52    1
    55    49    50    1
    56    51    58   ar
    57    51    60   ar
    58    52    53    1
    59    52    54    1
    60    52    55    1
    61    56    62   ar
    62    56    64   ar
    63    56    57    1
    64    58    64   ar
    65    58    59    1
    66    60    62   ar
    67    60    61    1
    68    62    63    1
    69    64    65    1
@<TRIPOS>SUBSTRUCTURE
     1 RES1        1 GROUP             0 ****  ****    0  
@<TRIPOS>MOLECULE
LIGAND_00054
    65    69     1     0     0
SMALL
USER_CHARGES
****
Generated from the CSD

@<TRIPOS>ATOM
     1 C1      -0.3701  -3.8964 -15.9918   C.ar      1 RES1   0.0000
     2 H2      -1.1642  -4.3349 -16.5863   H         1 RES1   0.0000
     3 C3       1.6297  -2.7392 -14.4773   C.ar      1 RES1   0.0000
     4 H4       2.4102  -2.2746 -13.8839   H         1 RES1   0.0000
     5 C5       0.0599  -4.5461 -14.8386   C.ar      1 RES1   0.0000
     6 C6       0.1911  -2.6974 -16.3942   C.ar      1 RES1   0.0000
     7 H7      -0.1441  -2.2032 -17.2999   H         1 RES1   0.0000
     8 C8       1.1764  -2.1489 -15.6225   C.ar      1 RES1   0.0000
     9 C9       1.0700  -3.9440 -14.0935   C.ar      1 RES1   0.0000
    10 H10      1.4331  -4.4269 -13.1935   H         1 RES1   0.0000
    11 C11     -0.5410  -5.8434 -14.3880   C.2       1 RES1   0.0000
    12 F12      1.7291  -0.9670 -16.0092   F         1 RES1   0.0000
    13 N13     -1.2406  -7.9410 -14.1570   N.am      1 RES1   0.0000
    14 C14     -1.5106  -9.4109 -14.3092   C.3       1 RES1   0.0000
    15 H15     -1.0788  -9.7377 -15.2540   H         1 RES1   0.0000
    16 C16     -2.0882  -7.8386 -11.7803   C.3       1 RES1   0.0000
    17 H17     -2.6361  -7.1177 -11.1770   H         1 RES1   0.0000
    18 H18     -2.7550  -8.6688 -12.0043   H         1 RES1   0.0000
    19 H19     -1.2602  -8.2192 -11.1860   H         1 RES1   0.0000
    20 C20     -1.1594  -5.9688 -13.1688   C.2       1 RES1   0.0000
    21 C21     -1.4160  -4.9157 -12.1531   C.ar      1 RES1   0.0000
    22 O22     -0.1808  -7.5094 -16.1020   O.2       1 RES1   0.0000
    23 C23     -0.6007  -7.1206 -15.0199   C.2       1 RES1   0.0000
    24 N24     -1.5984  -7.2184 -13.0119   N.pl3     1 RES1   0.0000
    25 C25     -1.0832 -11.6911 -13.3372   C.3       1 RES1   0.0000
    26 H26     -0.6331 -12.2196 -12.4981   H         1 RES1   0.0000
    27 H27     -0.6343 -12.0371 -14.2671   H         1 RES1   0.0000
    28 C28     -3.2435 -11.2227 -14.4623   C.3       1 RES1   0.0000
    29 H29     -2.8590 -11.5671 -15.4212   H         1 RES1   0.0000
    30 H30     -4.3132 -11.4194 -14.4083   H         1 RES1   0.0000
    31 C31     -3.0042  -9.7256 -14.3371   C.3       1 RES1   0.0000
    32 H32     -3.4589  -9.2199 -15.1876   H         1 RES1   0.0000
    33 H33     -3.4608  -9.3678 -13.4154   H         1 RES1   0.0000
    34 C34     -0.8406 -10.1997 -13.1835   C.3       1 RES1   0.0000
    35 H35     -1.2472  -9.8704 -12.2284   H         1 RES1   0.0000
    36 H36      0.2315 -10.0101 -13.2063   H         1 RES1   0.0000
    37 N37     -2.5535 -11.9614 -13.3641   N.4       1 RES1   1.0000
    38 H38     -2.9545 -11.6761 -12.4764   H         1 RES1   0.0000
    39 H39     -2.7004 -12.9568 -13.4974   H         1 RES1   0.0000
    40 N40     -0.4619  -4.7249 -11.2286   N.ar      1 RES1   0.0000
    41 C41     -2.7124  -3.2288 -11.1379   C.ar      1 RES1   0.0000
    42 H42     -3.6155  -2.6280 -11.1111   H         1 RES1   0.0000
    43 N43      0.2500  -3.6161  -9.3518   N.pl3     1 RES1   0.0000
    44 H44      1.0590  -4.2372  -9.3642   H         1 RES1   0.0000
    45 C45     -2.5846  -4.1682 -12.1411   C.ar      1 RES1   0.0000
    46 H46     -3.3622  -4.3161 -12.8831   H         1 RES1   0.0000
    47 C47     -0.6941  -3.7933 -10.2898   C.ar      1 RES1   0.0000
    48 N48     -1.7846  -3.0185 -10.1952   N.ar      1 RES1   0.0000
    49 C49      0.1610  -2.6297  -8.2754   C.3       1 RES1   0.0000
    50 H50     -0.7258  -2.8553  -7.6630   H         1 RES1   0.0000
    51 C51      0.0380  -1.2123  -8.7991   C.ar      1 RES1   0.0000
    52 C52      1.4032  -2.7816  -7.4053   C.3       1 RES1   0.0000
    53 H53      1.3736  -2.0902  -6.5658   H         1 RES1   0.0000
    54 H54      1.4779  -3.7922  -7.0093   H         1 RES1   0.0000
    55 H55      2.3031  -2.5763  -7.9812   H         1 RES1   0.0000
    56 C56     -0.1798   1.3881  -9.7740   C.ar      1 RES1   0.0000
    57 H57     -0.2654   2.4008 -10.1539   H         1 RES1   0.0000
    58 C58      0.6101  -0.8586 -10.0126   C.ar      1 RES1   0.0000
    59 H59      1.1490  -1.6038 -10.5884   H         1 RES1   0.0000
    60 C60     -0.6435  -0.2397  -8.0804   C.ar      1 RES1   0.0000
    61 H61     -1.0976  -0.4923  -7.1279   H         1 RES1   0.0000
    62 C62     -0.7513   1.0524  -8.5664   C.ar      1 RES1   0.0000
    63 H63     -1.2875   1.8020  -7.9941   H         1 RES1   0.0000
    64 C64      0.5006   0.4336 -10.4974   C.ar      1 RES1   0.0000
    65 H65      0.9518   0.6946 -11.4489   H         1 RES1   0.0000
@<TRIPOS>BOND
     1     1     5   ar
     2     1     6   ar
     3     1     2    1
     4     3     8   ar
     5     3     9   ar
     6     3     4    1
     7     5     9   ar
     8     5    11    1
     9     6     8   ar
    10     6     7    1
    11     8    12    1
    12     9    10    1
    13    11    20    2
    14    11    23    1
    15    13    14    1
    16    13    23   am
    17    13    24    1
    18    14    31    1
    19    14    34    1
    20    14    15    1
    21    16    24    1
    22    16    17    1
    23    16    18    1
    24    16    19    1
    25    20    21    1
    26    20    24    1
    27    21    40   ar
    28    21    45   ar
    29    22    23    2
    30    25    34    1
    31    25    37    1
    32    25    26    1
    33    25    27    1
    34    28    31    1
    35    28    37    1
    36    28    29    1
    37    28    30    1
    38    31    32    1
    39    31    33    1
    40    34    35    1
    41    34    36    1
    42    37    38    1
    43    37    39    1
    44    40    47   ar
    45    41    45   ar
    46    41    48   ar
    47    41    42    1
    48    43    47    1
    49    43    49    1
    50    43    44    1
    51    45    46    1
    52    47    48   ar
    53    49    51    1
    54    49    52    1
    55    49    50    1
    56    51    58   ar
    57    51    60   ar
    58    52    53    1
    59    52    54    1
    60    52    55    1
    61    56    62   ar
    62    56    64   ar
    63    56    57    1
    64    58    64   ar
    65    58    59    1
    66    60    62   ar
    67    60    61    1
    68    62    63    1
    69    64    65    1
@<TRIPOS>SUBSTRUCTURE
     1 RES1        1 GROUP             0 ****  ****    0  
@<TRIPOS>MOLECULE
LIGAND_00055
    65    69     1     0     0
SMALL
USER_CHARGES
****
Generated from the CSD

@<TRIPOS>ATOM
     1 C1      -0.6570  -3.3881 -14.9571   C.ar      1 RES1   0.0000
     2 H2      -1.7188  -3.4071 -14.7364   H         1 RES1   0.0000
     3 C3       2.0521  -3.3029 -15.4914   C.ar      1 RES1   0.0000
     4 H4       3.1167  -3.2595 -15.6959   H         1 RES1   0.0000
     5 C5       0.0908  -4.5541 -14.8225   C.ar      1 RES1   0.0000
     6 C6      -0.0727  -2.2010 -15.3619   C.ar      1 RES1   0.0000
     7 H7      -0.6658  -1.2994 -15.4733   H         1 RES1   0.0000
     8 C8       1.2698  -2.1903 -15.6162   C.ar      1 RES1   0.0000
     9 C9       1.4533  -4.4861 -15.0993   C.ar      1 RES1   0.0000
    10 H10      2.0637  -5.3776 -15.0111   H         1 RES1   0.0000
    11 C11     -0.5273  -5.8466 -14.3813   C.2       1 RES1   0.0000
    12 F12      1.8522  -1.0249 -16.0094   F         1 RES1   0.0000
    13 N13     -1.2499  -7.9377 -14.1628   N.am      1 RES1   0.0000
    14 C14     -1.5327  -9.4045 -14.3214   C.3       1 RES1   0.0000
    15 H15     -1.0945  -9.7332 -15.2626   H         1 RES1   0.0000
    16 C16     -2.1207  -7.8328 -11.7946   C.3       1 RES1   0.0000
    17 H17     -2.6675  -7.1080 -11.1951   H         1 RES1   0.0000
    18 H18     -2.7932  -8.6558 -12.0275   H         1 RES1   0.0000
    19 H19     -1.3025  -8.2230 -11.1929   H         1 RES1   0.0000
    20 C20     -1.1594  -5.9688 -13.1688   C.2       1 RES1   0.0000
    21 C21     -1.4160  -4.9157 -12.1531   C.ar      1 RES1   0.0000
    22 O22     -0.1661  -7.5118 -16.0958   O.2       1 RES1   0.0000
    23 C23     -0.5932  -7.1216 -15.0171   C.2       1 RES1   0.0000
    24 N24     -1.6123  -7.2144 -13.0195   N.pl3     1 RES1   0.0000
    25 C25     -1.1377 -11.6912 -13.3509   C.3       1 RES1   0.0000
    26 H26     -0.7015 -12.2261 -12.5086   H         1 RES1   0.0000
    27 H27     -0.6827 -12.0393 -14.2770   H         1 RES1   0.0000
    28 C28     -3.2816 -11.1987 -14.4968   C.3       1 RES1   0.0000
    29 H29     -2.8908 -11.5446 -15.4526   H         1 RES1   0.0000
    30 H30     -4.3538 -11.3850 -14.4543   H         1 RES1   0.0000
    31 C31     -3.0289  -9.7044 -14.3654   C.3       1 RES1   0.0000
    32 H32     -3.4699  -9.1922 -15.2192   H         1 RES1   0.0000
    33 H33     -3.4914  -9.3444 -13.4475   H         1 RES1   0.0000
    34 C34     -0.8821 -10.2026 -13.1909   C.3       1 RES1   0.0000
    35 H35     -1.2952  -9.8716 -12.2392   H         1 RES1   0.0000
    36 H36      0.1920 -10.0235 -13.2023   H         1 RES1   0.0000
    37 N37     -2.6103 -11.9468 -13.3935   N.4       1 RES1   1.0000
    38 H38     -3.0175 -11.6598 -12.5092   H         1 RES1   0.0000
    39 H39     -2.7655 -12.9405 -13.5308   H         1 RES1   0.0000
    40 N40     -2.5784  -4.2520 -12.2536   N.ar      1 RES1   0.0000
    41 C41     -0.8501  -3.6050 -10.2773   C.ar      1 RES1   0.0000
    42 H42     -0.1544  -3.3547  -9.4832   H         1 RES1   0.0000
    43 N43     -3.9628  -2.6010 -11.4687   N.pl3     1 RES1   0.0000
    44 H44     -4.1732  -1.8960 -10.7623   H         1 RES1   0.0000
    45 C45     -0.5032  -4.6139 -11.1531   C.ar      1 RES1   0.0000
    46 H46      0.4396  -5.1435 -11.0647   H         1 RES1   0.0000
    47 C47     -2.8100  -3.2801 -11.3565   C.ar      1 RES1   0.0000
    48 N48     -1.9968  -2.9172 -10.3539   N.ar      1 RES1   0.0000
    49 C49     -4.9648  -2.8525 -12.5042   C.3       1 RES1   0.0000
    50 H50     -5.3227  -3.8889 -12.4041   H         1 RES1   0.0000
    51 C51     -4.4098  -2.6665 -13.9028   C.ar      1 RES1   0.0000
    52 C52     -6.1351  -1.9086 -12.2541   C.3       1 RES1   0.0000
    53 H53     -6.9281  -2.0758 -12.9800   H         1 RES1   0.0000
    54 H54     -6.5491  -2.0597 -11.2594   H         1 RES1   0.0000
    55 H55     -5.8161  -0.8715 -12.3342   H         1 RES1   0.0000
    56 C56     -3.3865  -2.3098 -16.4691   C.ar      1 RES1   0.0000
    57 H57     -2.9874  -2.1713 -17.4684   H         1 RES1   0.0000
    58 C58     -3.8874  -1.4425 -14.2952   C.ar      1 RES1   0.0000
    59 H59     -3.8779  -0.6144 -13.5943   H         1 RES1   0.0000
    60 C60     -4.4131  -3.7090 -14.8193   C.ar      1 RES1   0.0000
    61 H61     -4.8180  -4.6748 -14.5357   H         1 RES1   0.0000
    62 C62     -3.9038  -3.5304 -16.0945   C.ar      1 RES1   0.0000
    63 H63     -3.9124  -4.3544 -16.8001   H         1 RES1   0.0000
    64 C64     -3.3780  -1.2659 -15.5704   C.ar      1 RES1   0.0000
    65 H65     -2.9712  -0.3034 -15.8621   H         1 RES1   0.0000
@<TRIPOS>BOND
     1     1     5   ar
     2     1     6   ar
     3     1     2    1
     4     3     8   ar
     5     3     9   ar
     6     3     4    1
     7     5     9   ar
     8     5    11    1
     9     6     8   ar
    10     6     7    1
    11     8    12    1
    12     9    10    1
    13    11    20    2
    14    11    23    1
    15    13    14    1
    16    13    23   am
    17    13    24    1
    18    14    31    1
    19    14    34    1
    20    14    15    1
    21    16    24    1
    22    16    17    1
    23    16    18    1
    24    16    19    1
    25    20    21    1
    26    20    24    1
    27    21    40   ar
    28    21    45   ar
    29    22    23    2
    30    25    34    1
    31    25    37    1
    32    25    26    1
    33    25    27    1
    34    28    31    1
    35    28    37    1
    36    28    29    1
    37    28    30    1
    38    31    32    1
    39    31    33    1
    40    34    35    1
    41    34    36    1
    42    37    38    1
    43    37    39    1
    44    40    47   ar
    45    41    45   ar
    46    41    48   ar
    47    41    42    1
    48    43    47    1
    49    43    49    1
    50    43    44    1
    51    45    46    1
    52    47    48   ar
    53    49    51    1
    54    49    52    1
    55    49    50    1
    56    51    58   ar
    57    51    60   ar
    58    52    53    1
    59    52    54    1
    60    52    55    1
    61    56    62   ar
    62    56    64   ar
    63    56    57    1
    64    58    64   ar
    65    58    59    1
    66    60    62   ar
    67    60    61    1
    68    62    63    1
    69    64    65    1
@<TRIPOS>SUBSTRUCTURE
     1 RES1        1 GROUP             0 ****  ****    0  
@<TRIPOS>MOLECULE
LIGAND_00056
    65    69     1     0     0
SMALL
USER_CHARGES
****
Generated from the CSD

@<TRIPOS>ATOM
     1 C1      -3.0248  -3.8117 -15.3691   C.ar      1 RES1   0.0000
     2 H2      -3.8579  -4.2218 -14.8086   H         1 RES1   0.0000
     3 C3      -0.9094  -2.7260 -16.7756   C.ar      1 RES1   0.0000
     4 H4      -0.0813  -2.2894 -17.3241   H         1 RES1   0.0000
     5 C5      -1.8085  -4.4880 -15.3803   C.ar      1 RES1   0.0000
     6 C6      -3.1929  -2.6215 -16.0545   C.ar      1 RES1   0.0000
     7 H7      -4.1477  -2.1065 -16.0477   H         1 RES1   0.0000
     8 C8      -2.1271  -2.1087 -16.7387   C.ar      1 RES1   0.0000
     9 C9      -0.7584  -3.9218 -16.0977   C.ar      1 RES1   0.0000
    10 H10      0.2005  -4.4262 -16.1329   H         1 RES1   0.0000
    11 C11     -1.6101  -5.7761 -14.6397   C.2       1 RES1   0.0000
    12 F12     -2.2837  -0.9357 -17.4105   F         1 RES1   0.0000
    13 N13     -1.2406  -7.9410 -14.1570   N.am      1 RES1   0.0000
    14 C14     -1.5106  -9.4109 -14.3092   C.3       1 RES1   0.0000
    15 H15     -1.2171  -9.7059 -15.3156   H         1 RES1   0.0000
    16 C16     -0.8997  -7.6987 -11.7768   C.3       1 RES1   0.0000
    17 H17     -1.4821  -8.4147 -11.2006   H         1 RES1   0.0000
    18 H18      0.0445  -8.1683 -12.0450   H         1 RES1   0.0000
    19 H19     -0.6846  -6.8442 -11.1387   H         1 RES1   0.0000
    20 C20     -1.7513  -5.9390 -13.3057   C.2       1 RES1   0.0000
    21 C21     -2.0254  -4.9138 -12.2663   C.ar      1 RES1   0.0000
    22 O22     -1.1751  -7.3947 -16.3880   O.2       1 RES1   0.0000
    23 C23     -1.3018  -7.0544 -15.2191   C.2       1 RES1   0.0000
    24 N24     -1.6302  -7.2794 -12.9734   N.3       1 RES1   0.0000
    25 C25     -0.9159 -11.7077 -13.4738   C.3       1 RES1   0.0000
    26 H26     -0.3412 -12.2498 -12.7243   H         1 RES1   0.0000
    27 H27     -0.6031 -12.0220 -14.4684   H         1 RES1   0.0000
    28 C28     -3.2233 -11.2475 -14.2588   C.3       1 RES1   0.0000
    29 H29     -2.9785 -11.5605 -15.2727   H         1 RES1   0.0000
    30 H30     -4.2710 -11.4637 -14.0551   H         1 RES1   0.0000
    31 C31     -2.9879  -9.7502 -14.1280   C.3       1 RES1   0.0000
    32 H32     -3.5686  -9.2307 -14.8888   H         1 RES1   0.0000
    33 H33     -3.3097  -9.4241 -13.1401   H         1 RES1   0.0000
    34 C34     -0.6731 -10.2168 -13.3155   C.3       1 RES1   0.0000
    35 H35     -0.9401  -9.9191 -12.3026   H         1 RES1   0.0000
    36 H36      0.3816 -10.0084 -13.4889   H         1 RES1   0.0000
    37 N37     -2.3707 -12.0022 -13.2938   N.4       1 RES1   1.0000
    38 H38     -2.6414 -11.7467 -12.3495   H         1 RES1   0.0000
    39 H39     -2.5224 -12.9963 -13.4320   H         1 RES1   0.0000
    40 N40     -3.3153  -4.6658 -11.9899   N.ar      1 RES1   0.0000
    41 C41     -1.3914  -3.2906 -10.6788   C.ar      1 RES1   0.0000
    42 H42     -0.6140  -2.7468 -10.1523   H         1 RES1   0.0000
    43 N43     -4.8658  -3.4583 -10.8082   N.pl3     1 RES1   0.0000
    44 H44     -5.5746  -3.9392 -11.3620   H         1 RES1   0.0000
    45 C45     -1.0092  -4.2301 -11.6151   C.ar      1 RES1   0.0000
    46 H46      0.0362  -4.4223 -11.8328   H         1 RES1   0.0000
    47 C47     -3.5758  -3.7226 -11.0704   C.ar      1 RES1   0.0000
    48 N48     -2.6681  -3.0123 -10.3849   N.ar      1 RES1   0.0000
    49 C49     -5.3174  -2.4775  -9.8215   C.3       1 RES1   0.0000
    50 H50     -4.9384  -1.4853 -10.1118   H         1 RES1   0.0000
    51 C51     -4.8220  -2.7935  -8.4239   C.ar      1 RES1   0.0000
    52 C52     -6.8407  -2.4467  -9.8639   C.3       1 RES1   0.0000
    53 H53     -7.2315  -1.7066  -9.1688   H         1 RES1   0.0000
    54 H54     -7.1956  -2.1954 -10.8612   H         1 RES1   0.0000
    55 H55     -7.2522  -3.4166  -9.5924   H         1 RES1   0.0000
    56 C56     -3.9117  -3.3892  -5.8594   C.ar      1 RES1   0.0000
    57 H57     -3.5564  -3.6210  -4.8608   H         1 RES1   0.0000
    58 C58     -4.5978  -4.1069  -8.0372   C.ar      1 RES1   0.0000
    59 H59     -4.7797  -4.9115  -8.7420   H         1 RES1   0.0000
    60 C60     -4.5845  -1.7827  -7.5025   C.ar      1 RES1   0.0000
    61 H61     -4.7544  -0.7481  -7.7815   H         1 RES1   0.0000
    62 C62     -4.1317  -2.0803  -6.2283   C.ar      1 RES1   0.0000
    63 H63     -3.9498  -1.2799  -5.5188   H         1 RES1   0.0000
    64 C64     -4.1443  -4.4026  -6.7629   C.ar      1 RES1   0.0000
    65 H65     -3.9720  -5.4345  -6.4758   H         1 RES1   0.0000
@<TRIPOS>BOND
     1     1     5   ar
     2     1     6   ar
     3     1     2    1
     4     3     8   ar
     5     3     9   ar
     6     3     4    1
     7     5     9   ar
     8     5    11    1
     9     6     8   ar
    10     6     7    1
    11     8    12    1
    12     9    10    1
    13    11    20    2
    14    11    23    1
    15    13    14    1
    16    13    23   am
    17    13    24    1
    18    14    31    1
    19    14    34    1
    20    14    15    1
    21    16    24    1
    22    16    17    1
    23    16    18    1
    24    16    19    1
    25    20    21    1
    26    20    24    1
    27    21    40   ar
    28    21    45   ar
    29    22    23    2
    30    25    34    1
    31    25    37    1
    32    25    26    1
    33    25    27    1
    34    28    31    1
    35    28    37    1
    36    28    29    1
    37    28    30    1
    38    31    32    1
    39    31    33    1
    40    34    35    1
    41    34    36    1
    42    37    38    1
    43    37    39    1
    44    40    47   ar
    45    41    45   ar
    46    41    48   ar
    47    41    42    1
    48    43    47    1
    49    43    49    1
    50    43    44    1
    51    45    46    1
    52    47    48   ar
    53    49    51    1
    54    49    52    1
    55    49    50    1
    56    51    58   ar
    57    51    60   ar
    58    52    53    1
    59    52    54    1
    60    52    55    1
    61    56    62   ar
    62    56    64   ar
    63    56    57    1
    64    58    64   ar
    65    58    59    1
    66    60    62   ar
    67    60    61    1
    68    62    63    1
    69    64    65    1
@<TRIPOS>SUBSTRUCTURE
     1 RES1        1 GROUP             0 ****  ****    0  
@<TRIPOS>MOLECULE
LIGAND_00057
    65    69     1     0     0
SMALL
USER_CHARGES
****
Generated from the CSD

@<TRIPOS>ATOM
     1 C1      -3.0248  -3.8117 -15.3691   C.ar      1 RES1   0.0000
     2 H2      -3.8579  -4.2218 -14.8086   H         1 RES1   0.0000
     3 C3      -0.9094  -2.7260 -16.7756   C.ar      1 RES1   0.0000
     4 H4      -0.0813  -2.2894 -17.3241   H         1 RES1   0.0000
     5 C5      -1.8085  -4.4880 -15.3803   C.ar      1 RES1   0.0000
     6 C6      -3.1929  -2.6215 -16.0545   C.ar      1 RES1   0.0000
     7 H7      -4.1477  -2.1065 -16.0477   H         1 RES1   0.0000
     8 C8      -2.1271  -2.1087 -16.7387   C.ar      1 RES1   0.0000
     9 C9      -0.7584  -3.9218 -16.0977   C.ar      1 RES1   0.0000
    10 H10      0.2005  -4.4262 -16.1329   H         1 RES1   0.0000
    11 C11     -1.6101  -5.7761 -14.6397   C.2       1 RES1   0.0000
    12 F12     -2.2837  -0.9357 -17.4105   F         1 RES1   0.0000
    13 N13     -1.2406  -7.9410 -14.1570   N.am      1 RES1   0.0000
    14 C14     -1.5106  -9.4109 -14.3092   C.3       1 RES1   0.0000
    15 H15     -1.2171  -9.7059 -15.3156   H         1 RES1   0.0000
    16 C16     -0.8997  -7.6987 -11.7768   C.3       1 RES1   0.0000
    17 H17     -1.4821  -8.4147 -11.2006   H         1 RES1   0.0000
    18 H18      0.0445  -8.1683 -12.0450   H         1 RES1   0.0000
    19 H19     -0.6846  -6.8442 -11.1387   H         1 RES1   0.0000
    20 C20     -1.7513  -5.9390 -13.3057   C.2       1 RES1   0.0000
    21 C21     -2.0254  -4.9138 -12.2663   C.ar      1 RES1   0.0000
    22 O22     -1.1751  -7.3947 -16.3880   O.2       1 RES1   0.0000
    23 C23     -1.3018  -7.0544 -15.2191   C.2       1 RES1   0.0000
    24 N24     -1.6302  -7.2794 -12.9734   N.3       1 RES1   0.0000
    25 C25     -0.9159 -11.7077 -13.4738   C.3       1 RES1   0.0000
    26 H26     -0.3412 -12.2498 -12.7243   H         1 RES1   0.0000
    27 H27     -0.6031 -12.0220 -14.4684   H         1 RES1   0.0000
    28 C28     -3.2233 -11.2475 -14.2588   C.3       1 RES1   0.0000
    29 H29     -2.9785 -11.5605 -15.2727   H         1 RES1   0.0000
    30 H30     -4.2710 -11.4637 -14.0551   H         1 RES1   0.0000
    31 C31     -2.9879  -9.7502 -14.1280   C.3       1 RES1   0.0000
    32 H32     -3.5686  -9.2307 -14.8888   H         1 RES1   0.0000
    33 H33     -3.3097  -9.4241 -13.1401   H         1 RES1   0.0000
    34 C34     -0.6731 -10.2168 -13.3155   C.3       1 RES1   0.0000
    35 H35     -0.9401  -9.9191 -12.3026   H         1 RES1   0.0000
    36 H36      0.3816 -10.0084 -13.4889   H         1 RES1   0.0000
    37 N37     -2.3707 -12.0022 -13.2938   N.4       1 RES1   1.0000
    38 H38     -2.6414 -11.7467 -12.3495   H         1 RES1   0.0000
    39 H39     -2.5224 -12.9963 -13.4320   H         1 RES1   0.0000
    40 N40     -0.9580  -4.3300 -11.6994   N.ar      1 RES1   0.0000
    41 C41     -3.4397  -3.6190 -10.8951   C.ar      1 RES1   0.0000
    42 H42     -4.4387  -3.3344 -10.5815   H         1 RES1   0.0000
    43 N43     -0.1258  -2.8511 -10.1571   N.pl3     1 RES1   0.0000
    44 H44      0.8002  -3.1826 -10.4271   H         1 RES1   0.0000
    45 C45     -3.3148  -4.5762 -11.8818   C.ar      1 RES1   0.0000
    46 H46     -4.1838  -5.0436 -12.3329   H         1 RES1   0.0000
    47 C47     -1.1929  -3.4204 -10.7400   C.ar      1 RES1   0.0000
    48 N48     -2.3968  -3.0232 -10.3026   N.ar      1 RES1   0.0000
    49 C49     -0.2096  -1.8296  -9.1135   C.3       1 RES1   0.0000
    50 H50     -0.7406  -2.2536  -8.2471   H         1 RES1   0.0000
    51 C51     -0.9518  -0.5909  -9.5755   C.ar      1 RES1   0.0000
    52 C52      1.2130  -1.4840  -8.6895   C.3       1 RES1   0.0000
    53 H53      1.2092  -0.7482  -7.8881   H         1 RES1   0.0000
    54 H54      1.7373  -2.3688  -8.3345   H         1 RES1   0.0000
    55 H55      1.7735  -1.0709  -9.5255   H         1 RES1   0.0000
    56 C56     -2.3107   1.6824 -10.4390   C.ar      1 RES1   0.0000
    57 H57     -2.8406   2.5675 -10.7752   H         1 RES1   0.0000
    58 C58     -0.9260  -0.2122 -10.9100   C.ar      1 RES1   0.0000
    59 H59     -0.3695  -0.8084 -11.6256   H         1 RES1   0.0000
    60 C60     -1.6685   0.1906  -8.6797   C.ar      1 RES1   0.0000
    61 H61     -1.7017  -0.0847  -7.6307   H         1 RES1   0.0000
    62 C62     -2.3437   1.3201  -9.1104   C.ar      1 RES1   0.0000
    63 H63     -2.9003   1.9210  -8.3990   H         1 RES1   0.0000
    64 C64     -1.6024   0.9171 -11.3390   C.ar      1 RES1   0.0000
    65 H65     -1.5743   1.1995 -12.3862   H         1 RES1   0.0000
@<TRIPOS>BOND
     1     1     5   ar
     2     1     6   ar
     3     1     2    1
     4     3     8   ar
     5     3     9   ar
     6     3     4    1
     7     5     9   ar
     8     5    11    1
     9     6     8   ar
    10     6     7    1
    11     8    12    1
    12     9    10    1
    13    11    20    2
    14    11    23    1
    15    13    14    1
    16    13    23   am
    17    13    24    1
    18    14    31    1
    19    14    34    1
    20    14    15    1
    21    16    24    1
    22    16    17    1
    23    16    18    1
    24    16    19    1
    25    20    21    1
    26    20    24    1
    27    21    40   ar
    28    21    45   ar
    29    22    23    2
    30    25    34    1
    31    25    37    1
    32    25    26    1
    33    25    27    1
    34    28    31    1
    35    28    37    1
    36    28    29    1
    37    28    30    1
    38    31    32    1
    39    31    33    1
    40    34    35    1
    41    34    36    1
    42    37    38    1
    43    37    39    1
    44    40    47   ar
    45    41    45   ar
    46    41    48   ar
    47    41    42    1
    48    43    47    1
    49    43    49    1
    50    43    44    1
    51    45    46    1
    52    47    48   ar
    53    49    51    1
    54    49    52    1
    55    49    50    1
    56    51    58   ar
    57    51    60   ar
    58    52    53    1
    59    52    54    1
    60    52    55    1
    61    56    62   ar
    62    56    64   ar
    63    56    57    1
    64    58    64   ar
    65    58    59    1
    66    60    62   ar
    67    60    61    1
    68    62    63    1
    69    64    65    1
@<TRIPOS>SUBSTRUCTURE
     1 RES1        1 GROUP             0 ****  ****    0  
@<TRIPOS>MOLECULE
LIGAND_00058
    65    69     1     0     0
SMALL
USER_CHARGES
****
Generated from the CSD

@<TRIPOS>ATOM
     1 C1      -0.7110  -3.3903 -14.9802   C.ar      1 RES1   0.0000
     2 H2      -1.7714  -3.4229 -14.7544   H         1 RES1   0.0000
     3 C3       1.9941  -3.2699 -15.5279   C.ar      1 RES1   0.0000
     4 H4       3.0570  -3.2127 -15.7377   H         1 RES1   0.0000
     5 C5       0.0540  -4.5446 -14.8416   C.ar      1 RES1   0.0000
     6 C6      -0.1456  -2.1976 -15.3953   C.ar      1 RES1   0.0000
     7 H7      -0.7520  -1.3053 -15.5097   H         1 RES1   0.0000
     8 C8       1.1954  -2.1694 -15.6561   C.ar      1 RES1   0.0000
     9 C9       1.4141  -4.4589 -15.1253   C.ar      1 RES1   0.0000
    10 H10      2.0376  -5.3411 -15.0343   H         1 RES1   0.0000
    11 C11     -0.5436  -5.8429 -14.3893   C.2       1 RES1   0.0000
    12 F12      1.7592  -0.9985 -16.0595   F         1 RES1   0.0000
    13 N13     -1.2388  -7.9417 -14.1559   N.am      1 RES1   0.0000
    14 C14     -1.5063  -9.4121 -14.3069   C.3       1 RES1   0.0000
    15 H15     -1.0758  -9.7385 -15.2524   H         1 RES1   0.0000
    16 C16     -2.0820  -7.8397 -11.7776   C.3       1 RES1   0.0000
    17 H17     -2.6304  -7.1196 -11.1738   H         1 RES1   0.0000
    18 H18     -2.7474  -8.6714 -11.9999   H         1 RES1   0.0000
    19 H19     -1.2521  -8.2181 -11.1846   H         1 RES1   0.0000
    20 C20     -1.1594  -5.9688 -13.1688   C.2       1 RES1   0.0000
    21 C21     -1.4160  -4.9157 -12.1531   C.ar      1 RES1   0.0000
    22 O22     -0.1836  -7.5089 -16.1032   O.2       1 RES1   0.0000
    23 C23     -0.6021  -7.1205 -15.0205   C.2       1 RES1   0.0000
    24 N24     -1.5958  -7.2192 -13.0105   N.pl3     1 RES1   0.0000
    25 C25     -1.0727 -11.6911 -13.3347   C.3       1 RES1   0.0000
    26 H26     -0.6200 -12.2183 -12.4963   H         1 RES1   0.0000
    27 H27     -0.6250 -12.0367 -14.2653   H         1 RES1   0.0000
    28 C28     -3.2361 -11.2272 -14.4557   C.3       1 RES1   0.0000
    29 H29     -2.8529 -11.5713 -15.4152   H         1 RES1   0.0000
    30 H30     -4.3054 -11.4259 -14.3995   H         1 RES1   0.0000
    31 C31     -2.9994  -9.7296 -14.3316   C.3       1 RES1   0.0000
    32 H32     -3.4567  -9.2251 -15.1815   H         1 RES1   0.0000
    33 H33     -3.4548  -9.3723 -13.4093   H         1 RES1   0.0000
    34 C34     -0.8327 -10.1991 -13.1821   C.3       1 RES1   0.0000
    35 H35     -1.2379  -9.8701 -12.2264   H         1 RES1   0.0000
    36 H36      0.2391 -10.0076 -13.2072   H         1 RES1   0.0000
    37 N37     -2.5426 -11.9641 -13.3586   N.4       1 RES1   1.0000
    38 H38     -2.9423 -11.6792 -12.4701   H         1 RES1   0.0000
    39 H39     -2.6879 -12.9598 -13.4911   H         1 RES1   0.0000
    40 N40     -0.3411  -4.2871 -11.6519   N.ar      1 RES1   0.0000
    41 C41     -2.8045  -3.6095 -10.7664   C.ar      1 RES1   0.0000
    42 H42     -3.7964  -3.3386 -10.4200   H         1 RES1   0.0000
    43 N43      0.5165  -2.7366 -10.1964   N.pl3     1 RES1   0.0000
    44 H44      0.3606  -1.9816  -9.5286   H         1 RES1   0.0000
    45 C45     -2.6965  -4.5965 -11.7253   C.ar      1 RES1   0.0000
    46 H46     -3.5713  -5.1000 -12.1232   H         1 RES1   0.0000
    47 C47     -0.5591  -3.3512 -10.7141   C.ar      1 RES1   0.0000
    48 N48     -1.7533  -2.9686 -10.2391   N.ar      1 RES1   0.0000
    49 C49      1.8960  -3.0392 -10.5774   C.3       1 RES1   0.0000
    50 H50      2.0177  -2.8346 -11.6524   H         1 RES1   0.0000
    51 C51      2.2631  -4.4869 -10.3171   C.ar      1 RES1   0.0000
    52 C52      2.8078  -2.0988  -9.7980   C.3       1 RES1   0.0000
    53 H53      3.8495  -2.2590 -10.0681   H         1 RES1   0.0000
    54 H54      2.5603  -1.0596 -10.0044   H         1 RES1   0.0000
    55 H55      2.7063  -2.2649  -8.7276   H         1 RES1   0.0000
    56 C56      2.9276  -7.1474  -9.8268   C.ar      1 RES1   0.0000
    57 H57      3.1860  -8.1838  -9.6364   H         1 RES1   0.0000
    58 C58      1.6642  -5.1892  -9.2811   C.ar      1 RES1   0.0000
    59 H59      0.9286  -4.6959  -8.6543   H         1 RES1   0.0000
    60 C60      3.2032  -5.1399 -11.1024   C.ar      1 RES1   0.0000
    61 H61      3.6862  -4.6107 -11.9171   H         1 RES1   0.0000
    62 C62      3.5322  -6.4625 -10.8577   C.ar      1 RES1   0.0000
    63 H63      4.2683  -6.9602 -11.4802   H         1 RES1   0.0000
    64 C64      1.9939  -6.5117  -9.0384   C.ar      1 RES1   0.0000
    65 H65      1.5156  -7.0482  -8.2257   H         1 RES1   0.0000
@<TRIPOS>BOND
     1     1     5   ar
     2     1     6   ar
     3     1     2    1
     4     3     8   ar
     5     3     9   ar
     6     3     4    1
     7     5     9   ar
     8     5    11    1
     9     6     8   ar
    10     6     7    1
    11     8    12    1
    12     9    10    1
    13    11    20    2
    14    11    23    1
    15    13    14    1
    16    13    23   am
    17    13    24    1
    18    14    31    1
    19    14    34    1
    20    14    15    1
    21    16    24    1
    22    16    17    1
    23    16    18    1
    24    16    19    1
    25    20    21    1
    26    20    24    1
    27    21    40   ar
    28    21    45   ar
    29    22    23    2
    30    25    34    1
    31    25    37    1
    32    25    26    1
    33    25    27    1
    34    28    31    1
    35    28    37    1
    36    28    29    1
    37    28    30    1
    38    31    32    1
    39    31    33    1
    40    34    35    1
    41    34    36    1
    42    37    38    1
    43    37    39    1
    44    40    47   ar
    45    41    45   ar
    46    41    48   ar
    47    41    42    1
    48    43    47    1
    49    43    49    1
    50    43    44    1
    51    45    46    1
    52    47    48   ar
    53    49    51    1
    54    49    52    1
    55    49    50    1
    56    51    58   ar
    57    51    60   ar
    58    52    53    1
    59    52    54    1
    60    52    55    1
    61    56    62   ar
    62    56    64   ar
    63    56    57    1
    64    58    64   ar
    65    58    59    1
    66    60    62   ar
    67    60    61    1
    68    62    63    1
    69    64    65    1
@<TRIPOS>SUBSTRUCTURE
     1 RES1        1 GROUP             0 ****  ****    0  
@<TRIPOS>MOLECULE
LIGAND_00059
    65    69     1     0     0
SMALL
USER_CHARGES
****
Generated from the CSD

@<TRIPOS>ATOM
     1 C1      -0.7109  -3.3903 -14.9801   C.ar      1 RES1   0.0000
     2 H2      -1.7712  -3.4229 -14.7544   H         1 RES1   0.0000
     3 C3       1.9942  -3.2700 -15.5278   C.ar      1 RES1   0.0000
     4 H4       3.0572  -3.2128 -15.7375   H         1 RES1   0.0000
     5 C5       0.0541  -4.5446 -14.8416   C.ar      1 RES1   0.0000
     6 C6      -0.1455  -2.1976 -15.3953   C.ar      1 RES1   0.0000
     7 H7      -0.7518  -1.3053 -15.5096   H         1 RES1   0.0000
     8 C8       1.1956  -2.1695 -15.6560   C.ar      1 RES1   0.0000
     9 C9       1.4142  -4.4590 -15.1252   C.ar      1 RES1   0.0000
    10 H10      2.0377  -5.3412 -15.0342   H         1 RES1   0.0000
    11 C11     -0.5435  -5.8429 -14.3892   C.2       1 RES1   0.0000
    12 F12      1.7595  -0.9985 -16.0594   F         1 RES1   0.0000
    13 N13     -1.2389  -7.9416 -14.1560   N.am      1 RES1   0.0000
    14 C14     -1.5064  -9.4121 -14.3069   C.3       1 RES1   0.0000
    15 H15     -1.0759  -9.7385 -15.2525   H         1 RES1   0.0000
    16 C16     -2.0821  -7.8397 -11.7777   C.3       1 RES1   0.0000
    17 H17     -2.6305  -7.1196 -11.1739   H         1 RES1   0.0000
    18 H18     -2.7475  -8.6714 -12.0000   H         1 RES1   0.0000
    19 H19     -1.2522  -8.2182 -11.1846   H         1 RES1   0.0000
    20 C20     -1.1594  -5.9688 -13.1688   C.2       1 RES1   0.0000
    21 C21     -1.4160  -4.9157 -12.1531   C.ar      1 RES1   0.0000
    22 O22     -0.1836  -7.5089 -16.1032   O.2       1 RES1   0.0000
    23 C23     -0.6021  -7.1205 -15.0205   C.2       1 RES1   0.0000
    24 N24     -1.5958  -7.2192 -13.0105   N.pl3     1 RES1   0.0000
    25 C25     -1.0729 -11.6911 -13.3347   C.3       1 RES1   0.0000
    26 H26     -0.6203 -12.2184 -12.4963   H         1 RES1   0.0000
    27 H27     -0.6252 -12.0367 -14.2653   H         1 RES1   0.0000
    28 C28     -3.2362 -11.2271 -14.4558   C.3       1 RES1   0.0000
    29 H29     -2.8530 -11.5713 -15.4153   H         1 RES1   0.0000
    30 H30     -4.3055 -11.4258 -14.3996   H         1 RES1   0.0000
    31 C31     -2.9995  -9.7295 -14.3317   C.3       1 RES1   0.0000
    32 H32     -3.4568  -9.2250 -15.1816   H         1 RES1   0.0000
    33 H33     -3.4549  -9.3722 -13.4094   H         1 RES1   0.0000
    34 C34     -0.8328 -10.1991 -13.1822   C.3       1 RES1   0.0000
    35 H35     -1.2381  -9.8701 -12.2264   H         1 RES1   0.0000
    36 H36      0.2389 -10.0076 -13.2072   H         1 RES1   0.0000
    37 N37     -2.5428 -11.9640 -13.3587   N.4       1 RES1   1.0000
    38 H38     -2.9425 -11.6791 -12.4702   H         1 RES1   0.0000
    39 H39     -2.6881 -12.9598 -13.4912   H         1 RES1   0.0000
    40 N40     -0.3411  -4.2871 -11.6519   N.ar      1 RES1   0.0000
    41 C41     -2.8045  -3.6095 -10.7664   C.ar      1 RES1   0.0000
    42 H42     -3.7964  -3.3386 -10.4200   H         1 RES1   0.0000
    43 N43      0.5165  -2.7366 -10.1964   N.pl3     1 RES1   0.0000
    44 H44      1.4387  -3.0548 -10.4943   H         1 RES1   0.0000
    45 C45     -2.6965  -4.5965 -11.7253   C.ar      1 RES1   0.0000
    46 H46     -3.5713  -5.1000 -12.1232   H         1 RES1   0.0000
    47 C47     -0.5591  -3.3512 -10.7141   C.ar      1 RES1   0.0000
    48 N48     -1.7533  -2.9686 -10.2391   N.ar      1 RES1   0.0000
    49 C49      0.4502  -1.6820  -9.1850   C.3       1 RES1   0.0000
    50 H50     -0.0331  -2.0885  -8.2831   H         1 RES1   0.0000
    51 C51     -0.3419  -0.4783  -9.6562   C.ar      1 RES1   0.0000
    52 C52      1.8801  -1.2878  -8.8337   C.3       1 RES1   0.0000
    53 H53      1.8909  -0.5250  -8.0579   H         1 RES1   0.0000
    54 H54      2.4412  -2.1469  -8.4719   H         1 RES1   0.0000
    55 H55      2.3944  -0.8904  -9.7062   H         1 RES1   0.0000
    56 C56     -1.7933   1.7305 -10.5367   C.ar      1 RES1   0.0000
    57 H57     -2.3592   2.5903 -10.8795   H         1 RES1   0.0000
    58 C58     -0.3819  -0.1456 -11.0026   C.ar      1 RES1   0.0000
    59 H59      0.1590  -0.7528 -11.7209   H         1 RES1   0.0000
    60 C60     -1.0399   0.3165  -8.7573   C.ar      1 RES1   0.0000
    61 H61     -1.0220   0.0771  -7.6992   H         1 RES1   0.0000
    62 C62     -1.7612   1.4138  -9.1964   C.ar      1 RES1   0.0000
    63 H63     -2.3025   2.0256  -8.4824   H         1 RES1   0.0000
    64 C64     -1.1043   0.9516 -11.4400   C.ar      1 RES1   0.0000
    65 H65     -1.1275   1.1980 -12.4963   H         1 RES1   0.0000
@<TRIPOS>BOND
     1     1     5   ar
     2     1     6   ar
     3     1     2    1
     4     3     8   ar
     5     3     9   ar
     6     3     4    1
     7     5     9   ar
     8     5    11    1
     9     6     8   ar
    10     6     7    1
    11     8    12    1
    12     9    10    1
    13    11    20    2
    14    11    23    1
    15    13    14    1
    16    13    23   am
    17    13    24    1
    18    14    31    1
    19    14    34    1
    20    14    15    1
    21    16    24    1
    22    16    17    1
    23    16    18    1
    24    16    19    1
    25    20    21    1
    26    20    24    1
    27    21    40   ar
    28    21    45   ar
    29    22    23    2
    30    25    34    1
    31    25    37    1
    32    25    26    1
    33    25    27    1
    34    28    31    1
    35    28    37    1
    36    28    29    1
    37    28    30    1
    38    31    32    1
    39    31    33    1
    40    34    35    1
    41    34    36    1
    42    37    38    1
    43    37    39    1
    44    40    47   ar
    45    41    45   ar
    46    41    48   ar
    47    41    42    1
    48    43    47    1
    49    43    49    1
    50    43    44    1
    51    45    46    1
    52    47    48   ar
    53    49    51    1
    54    49    52    1
    55    49    50    1
    56    51    58   ar
    57    51    60   ar
    58    52    53    1
    59    52    54    1
    60    52    55    1
    61    56    62   ar
    62    56    64   ar
    63    56    57    1
    64    58    64   ar
    65    58    59    1
    66    60    62   ar
    67    60    61    1
    68    62    63    1
    69    64    65    1
@<TRIPOS>SUBSTRUCTURE
     1 RES1        1 GROUP             0 ****  ****    0  
@<TRIPOS>MOLECULE
LIGAND_00060
    65    69     1     0     0
SMALL
USER_CHARGES
****
Generated from the CSD

@<TRIPOS>ATOM
     1 C1      -0.3701  -3.8964 -15.9918   C.ar      1 RES1   0.0000
     2 H2      -1.1642  -4.3349 -16.5863   H         1 RES1   0.0000
     3 C3       1.6297  -2.7392 -14.4773   C.ar      1 RES1   0.0000
     4 H4       2.4102  -2.2746 -13.8839   H         1 RES1   0.0000
     5 C5       0.0599  -4.5461 -14.8386   C.ar      1 RES1   0.0000
     6 C6       0.1911  -2.6974 -16.3942   C.ar      1 RES1   0.0000
     7 H7      -0.1441  -2.2032 -17.2999   H         1 RES1   0.0000
     8 C8       1.1764  -2.1489 -15.6225   C.ar      1 RES1   0.0000
     9 C9       1.0700  -3.9440 -14.0935   C.ar      1 RES1   0.0000
    10 H10      1.4331  -4.4269 -13.1935   H         1 RES1   0.0000
    11 C11     -0.5410  -5.8434 -14.3880   C.2       1 RES1   0.0000
    12 F12      1.7291  -0.9670 -16.0092   F         1 RES1   0.0000
    13 N13     -1.2406  -7.9410 -14.1570   N.am      1 RES1   0.0000
    14 C14     -1.5106  -9.4109 -14.3092   C.3       1 RES1   0.0000
    15 H15     -1.0788  -9.7377 -15.2540   H         1 RES1   0.0000
    16 C16     -2.0882  -7.8386 -11.7803   C.3       1 RES1   0.0000
    17 H17     -2.6361  -7.1177 -11.1770   H         1 RES1   0.0000
    18 H18     -2.7550  -8.6688 -12.0043   H         1 RES1   0.0000
    19 H19     -1.2602  -8.2192 -11.1860   H         1 RES1   0.0000
    20 C20     -1.1594  -5.9688 -13.1688   C.2       1 RES1   0.0000
    21 C21     -1.4160  -4.9157 -12.1531   C.ar      1 RES1   0.0000
    22 O22     -0.1808  -7.5094 -16.1020   O.2       1 RES1   0.0000
    23 C23     -0.6007  -7.1206 -15.0199   C.2       1 RES1   0.0000
    24 N24     -1.5984  -7.2184 -13.0119   N.pl3     1 RES1   0.0000
    25 C25     -1.0832 -11.6911 -13.3372   C.3       1 RES1   0.0000
    26 H26     -0.6331 -12.2196 -12.4981   H         1 RES1   0.0000
    27 H27     -0.6343 -12.0371 -14.2671   H         1 RES1   0.0000
    28 C28     -3.2435 -11.2227 -14.4623   C.3       1 RES1   0.0000
    29 H29     -2.8590 -11.5671 -15.4212   H         1 RES1   0.0000
    30 H30     -4.3132 -11.4194 -14.4083   H         1 RES1   0.0000
    31 C31     -3.0042  -9.7256 -14.3371   C.3       1 RES1   0.0000
    32 H32     -3.4589  -9.2199 -15.1876   H         1 RES1   0.0000
    33 H33     -3.4608  -9.3678 -13.4154   H         1 RES1   0.0000
    34 C34     -0.8406 -10.1997 -13.1835   C.3       1 RES1   0.0000
    35 H35     -1.2472  -9.8704 -12.2284   H         1 RES1   0.0000
    36 H36      0.2315 -10.0101 -13.2063   H         1 RES1   0.0000
    37 N37     -2.5535 -11.9614 -13.3641   N.4       1 RES1   1.0000
    38 H38     -2.9545 -11.6761 -12.4764   H         1 RES1   0.0000
    39 H39     -2.7004 -12.9568 -13.4974   H         1 RES1   0.0000
    40 N40     -2.1741  -3.8776 -12.5396   N.ar      1 RES1   0.0000
    41 C41     -1.1917  -3.9353 -10.0211   C.ar      1 RES1   0.0000
    42 H42     -0.7990  -3.9680  -9.0102   H         1 RES1   0.0000
    43 N43     -3.1319  -1.8575 -12.0297   N.pl3     1 RES1   0.0000
    44 H44     -3.4348  -1.8228 -13.0030   H         1 RES1   0.0000
    45 C45     -0.8939  -4.9825 -10.8696   C.ar      1 RES1   0.0000
    46 H46     -0.2788  -5.8165 -10.5484   H         1 RES1   0.0000
    47 C47     -2.3915  -2.9067 -11.6379   C.ar      1 RES1   0.0000
    48 N48     -1.9371  -2.8809 -10.3765   N.ar      1 RES1   0.0000
    49 C49     -3.4781  -0.7300 -11.1646   C.3       1 RES1   0.0000
    50 H50     -2.5488  -0.2398 -10.8355   H         1 RES1   0.0000
    51 C51     -4.2572  -1.1610  -9.9375   C.ar      1 RES1   0.0000
    52 C52     -4.2815   0.2621 -11.9975   C.3       1 RES1   0.0000
    53 H53     -4.5393   1.1404 -11.4093   H         1 RES1   0.0000
    54 H54     -3.7124   0.5904 -12.8647   H         1 RES1   0.0000
    55 H55     -5.2050  -0.1918 -12.3505   H         1 RES1   0.0000
    56 C56     -5.6947  -1.9648  -7.6908   C.ar      1 RES1   0.0000
    57 H57     -6.2540  -2.2782  -6.8155   H         1 RES1   0.0000
    58 C58     -5.0852  -2.2733  -9.9848   C.ar      1 RES1   0.0000
    59 H59     -5.1740  -2.8363 -10.9080   H         1 RES1   0.0000
    60 C60     -4.1634  -0.4561  -8.7454   C.ar      1 RES1   0.0000
    61 H61     -3.5237   0.4181  -8.6849   H         1 RES1   0.0000
    62 C62     -4.8783  -0.8571  -7.6293   C.ar      1 RES1   0.0000
    63 H63     -4.7946  -0.2968  -6.7041   H         1 RES1   0.0000
    64 C64     -5.7986  -2.6732  -8.8677   C.ar      1 RES1   0.0000
    65 H65     -6.4406  -3.5462  -8.9196   H         1 RES1   0.0000
@<TRIPOS>BOND
     1     1     5   ar
     2     1     6   ar
     3     1     2    1
     4     3     8   ar
     5     3     9   ar
     6     3     4    1
     7     5     9   ar
     8     5    11    1
     9     6     8   ar
    10     6     7    1
    11     8    12    1
    12     9    10    1
    13    11    20    2
    14    11    23    1
    15    13    14    1
    16    13    23   am
    17    13    24    1
    18    14    31    1
    19    14    34    1
    20    14    15    1
    21    16    24    1
    22    16    17    1
    23    16    18    1
    24    16    19    1
    25    20    21    1
    26    20    24    1
    27    21    40   ar
    28    21    45   ar
    29    22    23    2
    30    25    34    1
    31    25    37    1
    32    25    26    1
    33    25    27    1
    34    28    31    1
    35    28    37    1
    36    28    29    1
    37    28    30    1
    38    31    32    1
    39    31    33    1
    40    34    35    1
    41    34    36    1
    42    37    38    1
    43    37    39    1
    44    40    47   ar
    45    41    45   ar
    46    41    48   ar
    47    41    42    1
    48    43    47    1
    49    43    49    1
    50    43    44    1
    51    45    46    1
    52    47    48   ar
    53    49    51    1
    54    49    52    1
    55    49    50    1
    56    51    58   ar
    57    51    60   ar
    58    52    53    1
    59    52    54    1
    60    52    55    1
    61    56    62   ar
    62    56    64   ar
    63    56    57    1
    64    58    64   ar
    65    58    59    1
    66    60    62   ar
    67    60    61    1
    68    62    63    1
    69    64    65    1
@<TRIPOS>SUBSTRUCTURE
     1 RES1        1 GROUP             0 ****  ****    0  
@<TRIPOS>MOLECULE
LIGAND_00061
    65    69     1     0     0
SMALL
USER_CHARGES
****
Generated from the CSD

@<TRIPOS>ATOM
     1 C1      -0.6094  -3.4053 -15.0053   C.ar      1 RES1   0.0000
     2 H2      -1.6829  -3.4239 -14.8508   H         1 RES1   0.0000
     3 C3       2.1274  -3.3202 -15.3718   C.ar      1 RES1   0.0000
     4 H4       3.2026  -3.2769 -15.5105   H         1 RES1   0.0000
     5 C5       0.1316  -4.5653 -14.8005   C.ar      1 RES1   0.0000
     6 C6      -0.0043  -2.2243 -15.3973   C.ar      1 RES1   0.0000
     7 H7      -0.5916  -1.3275 -15.5638   H         1 RES1   0.0000
     8 C8       1.3515  -2.2135 -15.5678   C.ar      1 RES1   0.0000
     9 C9       1.5086  -4.4976 -14.9934   C.ar      1 RES1   0.0000
    10 H10      2.1146  -5.3847 -14.8491   H         1 RES1   0.0000
    11 C11     -0.5093  -5.8510 -14.3722   C.2       1 RES1   0.0000
    12 F12      1.9541  -1.0541 -15.9479   F         1 RES1   0.0000
    13 N13     -1.2621  -7.9332 -14.1706   N.am      1 RES1   0.0000
    14 C14     -1.5619  -9.3956 -14.3381   C.3       1 RES1   0.0000
    15 H15     -1.1153  -9.7269 -15.2744   H         1 RES1   0.0000
    16 C16     -2.1636  -7.8244 -11.8141   C.3       1 RES1   0.0000
    17 H17     -2.7092  -7.0944 -11.2197   H         1 RES1   0.0000
    18 H18     -2.8436  -8.6378 -12.0589   H         1 RES1   0.0000
    19 H19     -1.3589  -8.2271 -11.2026   H         1 RES1   0.0000
    20 C20     -1.1594  -5.9688 -13.1688   C.2       1 RES1   0.0000
    21 C21     -1.4160  -4.9157 -12.1531   C.ar      1 RES1   0.0000
    22 O22     -0.1466  -7.5153 -16.0873   O.2       1 RES1   0.0000
    23 C23     -0.5832  -7.1229 -15.0131   C.2       1 RES1   0.0000
    24 N24     -1.6305  -7.2088 -13.0299   N.pl3     1 RES1   0.0000
    25 C25     -1.2101 -11.6903 -13.3701   C.3       1 RES1   0.0000
    26 H26     -0.7924 -12.2337 -12.5238   H         1 RES1   0.0000
    27 H27     -0.7472 -12.0415 -14.2911   H         1 RES1   0.0000
    28 C28     -3.3317 -11.1661 -14.5433   C.3       1 RES1   0.0000
    29 H29     -2.9324 -11.5140 -15.4949   H         1 RES1   0.0000
    30 H30     -4.4066 -11.3384 -14.5159   H         1 RES1   0.0000
    31 C31     -3.0612  -9.6756 -14.4033   C.3       1 RES1   0.0000
    32 H32     -3.4838  -9.1549 -15.2613   H         1 RES1   0.0000
    33 H33     -3.5314  -9.3125 -13.4906   H         1 RES1   0.0000
    34 C34     -0.9372 -10.2058 -13.2016   C.3       1 RES1   0.0000
    35 H35     -1.3589  -9.8725 -12.2544   H         1 RES1   0.0000
    36 H36      0.1392 -10.0408 -13.1978   H         1 RES1   0.0000
    37 N37     -2.6852 -11.9265 -13.4335   N.4       1 RES1   1.0000
    38 H38     -3.1006 -11.6370 -12.5538   H         1 RES1   0.0000
    39 H39     -2.8516 -12.9176 -13.5763   H         1 RES1   0.0000
    40 N40     -2.1741  -3.8776 -12.5396   N.ar      1 RES1   0.0000
    41 C41     -1.1917  -3.9353 -10.0211   C.ar      1 RES1   0.0000
    42 H42     -0.7990  -3.9680  -9.0102   H         1 RES1   0.0000
    43 N43     -3.1319  -1.8575 -12.0297   N.pl3     1 RES1   0.0000
    44 H44     -3.4350  -1.8228 -13.0030   H         1 RES1   0.0000
    45 C45     -0.8939  -4.9825 -10.8696   C.ar      1 RES1   0.0000
    46 H46     -0.2788  -5.8165 -10.5484   H         1 RES1   0.0000
    47 C47     -2.3915  -2.9067 -11.6379   C.ar      1 RES1   0.0000
    48 N48     -1.9371  -2.8809 -10.3765   N.ar      1 RES1   0.0000
    49 C49     -3.4780  -0.7299 -11.1647   C.3       1 RES1   0.0000
    50 H50     -2.5486  -0.2397 -10.8358   H         1 RES1   0.0000
    51 C51     -4.2568  -1.1608  -9.9374   C.ar      1 RES1   0.0000
    52 C52     -4.2815   0.2621 -11.9975   C.3       1 RES1   0.0000
    53 H53     -4.5393   1.1404 -11.4094   H         1 RES1   0.0000
    54 H54     -3.7126   0.5902 -12.8649   H         1 RES1   0.0000
    55 H55     -5.2052  -0.1920 -12.3502   H         1 RES1   0.0000
    56 C56     -5.6938  -1.9644  -7.6903   C.ar      1 RES1   0.0000
    57 H57     -6.2528  -2.2777  -6.8148   H         1 RES1   0.0000
    58 C58     -5.0848  -2.2731  -9.9843   C.ar      1 RES1   0.0000
    59 H59     -5.1739  -2.8362 -10.9075   H         1 RES1   0.0000
    60 C60     -4.1627  -0.4558  -8.7453   C.ar      1 RES1   0.0000
    61 H61     -3.5230   0.4184  -8.6850   H         1 RES1   0.0000
    62 C62     -4.8773  -0.8567  -7.6291   C.ar      1 RES1   0.0000
    63 H63     -4.7934  -0.2963  -6.7038   H         1 RES1   0.0000
    64 C64     -5.7980  -2.6729  -8.8670   C.ar      1 RES1   0.0000
    65 H65     -6.4400  -3.5459  -8.9188   H         1 RES1   0.0000
@<TRIPOS>BOND
     1     1     5   ar
     2     1     6   ar
     3     1     2    1
     4     3     8   ar
     5     3     9   ar
     6     3     4    1
     7     5     9   ar
     8     5    11    1
     9     6     8   ar
    10     6     7    1
    11     8    12    1
    12     9    10    1
    13    11    20    2
    14    11    23    1
    15    13    14    1
    16    13    23   am
    17    13    24    1
    18    14    31    1
    19    14    34    1
    20    14    15    1
    21    16    24    1
    22    16    17    1
    23    16    18    1
    24    16    19    1
    25    20    21    1
    26    20    24    1
    27    21    40   ar
    28    21    45   ar
    29    22    23    2
    30    25    34    1
    31    25    37    1
    32    25    26    1
    33    25    27    1
    34    28    31    1
    35    28    37    1
    36    28    29    1
    37    28    30    1
    38    31    32    1
    39    31    33    1
    40    34    35    1
    41    34    36    1
    42    37    38    1
    43    37    39    1
    44    40    47   ar
    45    41    45   ar
    46    41    48   ar
    47    41    42    1
    48    43    47    1
    49    43    49    1
    50    43    44    1
    51    45    46    1
    52    47    48   ar
    53    49    51    1
    54    49    52    1
    55    49    50    1
    56    51    58   ar
    57    51    60   ar
    58    52    53    1
    59    52    54    1
    60    52    55    1
    61    56    62   ar
    62    56    64   ar
    63    56    57    1
    64    58    64   ar
    65    58    59    1
    66    60    62   ar
    67    60    61    1
    68    62    63    1
    69    64    65    1
@<TRIPOS>SUBSTRUCTURE
     1 RES1        1 GROUP             0 ****  ****    0  
@<TRIPOS>MOLECULE
LIGAND_00062
    65    69     1     0     0
SMALL
USER_CHARGES
****
Generated from the CSD

@<TRIPOS>ATOM
     1 C1      -0.5138  -3.8750 -15.9969   C.ar      1 RES1   0.0000
     2 H2      -1.3347  -4.3181 -16.5503   H         1 RES1   0.0000
     3 C3       1.5536  -2.7062 -14.5856   C.ar      1 RES1   0.0000
     4 H4       2.3605  -2.2372 -14.0324   H         1 RES1   0.0000
     5 C5      -0.0130  -4.5287 -14.8750   C.ar      1 RES1   0.0000
     6 C6       0.0104  -2.6661 -16.4193   C.ar      1 RES1   0.0000
     7 H7      -0.3802  -2.1687 -17.3008   H         1 RES1   0.0000
     8 C8       1.0307  -2.1122 -15.6987   C.ar      1 RES1   0.0000
     9 C9       1.0299  -3.9207 -14.1819   C.ar      1 RES1   0.0000
    10 H10      1.4480  -4.4065 -13.3076   H         1 RES1   0.0000
    11 C11     -0.5731  -5.8367 -14.4031   C.2       1 RES1   0.0000
    12 F12      1.5475  -0.9208 -16.1052   F         1 RES1   0.0000
    13 N13     -1.2187  -7.9483 -14.1439   N.am      1 RES1   0.0000
    14 C14     -1.4583  -9.4249 -14.2815   C.3       1 RES1   0.0000
    15 H15     -1.0416  -9.7474 -15.2345   H         1 RES1   0.0000
    16 C16     -2.0118  -7.8509 -11.7483   C.3       1 RES1   0.0000
    17 H17     -2.5615  -7.1390 -11.1360   H         1 RES1   0.0000
    18 H18     -2.6646  -8.6973 -11.9517   H         1 RES1   0.0000
    19 H19     -1.1614  -8.2090 -11.1719   H         1 RES1   0.0000
    20 C20     -1.1594  -5.9688 -13.1688   C.2       1 RES1   0.0000
    21 C21     -1.4160  -4.9157 -12.1531   C.ar      1 RES1   0.0000
    22 O22     -0.2154  -7.5044 -16.1160   O.2       1 RES1   0.0000
    23 C23     -0.6184  -7.1188 -15.0263   C.2       1 RES1   0.0000
    24 N24     -1.5658  -7.2272 -12.9946   N.pl3     1 RES1   0.0000
    25 C25     -0.9557 -11.6888 -13.3074   C.3       1 RES1   0.0000
    26 H26     -0.4739 -12.2018 -12.4764   H         1 RES1   0.0000
    27 H27     -0.5211 -12.0301 -14.2457   H         1 RES1   0.0000
    28 C28     -3.1522 -11.2767 -14.3833   C.3       1 RES1   0.0000
    29 H29     -2.7828 -11.6180 -15.3492   H         1 RES1   0.0000
    30 H30     -4.2156 -11.4974 -14.3027   H         1 RES1   0.0000
    31 C31     -2.9445  -9.7738 -14.2720   C.3       1 RES1   0.0000
    32 H32     -3.4307  -9.2837 -15.1143   H         1 RES1   0.0000
    33 H33     -3.3872  -9.4209 -13.3418   H         1 RES1   0.0000
    34 C34     -0.7439 -10.1913 -13.1677   C.3       1 RES1   0.0000
    35 H35     -1.1352  -9.8656 -12.2051   H         1 RES1   0.0000
    36 H36      0.3228  -9.9775 -13.2171   H         1 RES1   0.0000
    37 N37     -2.4197 -11.9927 -13.2978   N.4       1 RES1   1.0000
    38 H38     -2.8059 -11.7113 -12.4023   H         1 RES1   0.0000
    39 H39     -2.5467 -12.9920 -13.4220   H         1 RES1   0.0000
    40 N40     -0.3411  -4.2871 -11.6519   N.ar      1 RES1   0.0000
    41 C41     -2.8045  -3.6095 -10.7664   C.ar      1 RES1   0.0000
    42 H42     -3.7964  -3.3386 -10.4200   H         1 RES1   0.0000
    43 N43      0.5165  -2.7366 -10.1964   N.pl3     1 RES1   0.0000
    44 H44      0.3606  -1.9816  -9.5286   H         1 RES1   0.0000
    45 C45     -2.6965  -4.5965 -11.7253   C.ar      1 RES1   0.0000
    46 H46     -3.5713  -5.1000 -12.1232   H         1 RES1   0.0000
    47 C47     -0.5591  -3.3512 -10.7141   C.ar      1 RES1   0.0000
    48 N48     -1.7533  -2.9686 -10.2391   N.ar      1 RES1   0.0000
    49 C49      1.8960  -3.0392 -10.5774   C.3       1 RES1   0.0000
    50 H50      2.0176  -2.8349 -11.6524   H         1 RES1   0.0000
    51 C51      2.2632  -4.4868 -10.3167   C.ar      1 RES1   0.0000
    52 C52      2.8078  -2.0986  -9.7983   C.3       1 RES1   0.0000
    53 H53      3.8494  -2.2588 -10.0684   H         1 RES1   0.0000
    54 H54      2.5602  -1.0595 -10.0049   H         1 RES1   0.0000
    55 H55      2.7064  -2.2645  -8.7278   H         1 RES1   0.0000
    56 C56      2.9278  -7.1472  -9.8257   C.ar      1 RES1   0.0000
    57 H57      3.1863  -8.1836  -9.6351   H         1 RES1   0.0000
    58 C58      1.6644  -5.1888  -9.2805   C.ar      1 RES1   0.0000
    59 H59      0.9289  -4.6954  -8.6537   H         1 RES1   0.0000
    60 C60      3.2032  -5.1400 -11.1019   C.ar      1 RES1   0.0000
    61 H61      3.6861  -4.6110 -11.9168   H         1 RES1   0.0000
    62 C62      3.5323  -6.4625 -10.8569   C.ar      1 RES1   0.0000
    63 H63      4.2684  -6.9604 -11.4793   H         1 RES1   0.0000
    64 C64      1.9942  -6.5114  -9.0375   C.ar      1 RES1   0.0000
    65 H65      1.5160  -7.0476  -8.2246   H         1 RES1   0.0000
@<TRIPOS>BOND
     1     1     5   ar
     2     1     6   ar
     3     1     2    1
     4     3     8   ar
     5     3     9   ar
     6     3     4    1
     7     5     9   ar
     8     5    11    1
     9     6     8   ar
    10     6     7    1
    11     8    12    1
    12     9    10    1
    13    11    20    2
    14    11    23    1
    15    13    14    1
    16    13    23   am
    17    13    24    1
    18    14    31    1
    19    14    34    1
    20    14    15    1
    21    16    24    1
    22    16    17    1
    23    16    18    1
    24    16    19    1
    25    20    21    1
    26    20    24    1
    27    21    40   ar
    28    21    45   ar
    29    22    23    2
    30    25    34    1
    31    25    37    1
    32    25    26    1
    33    25    27    1
    34    28    31    1
    35    28    37    1
    36    28    29    1
    37    28    30    1
    38    31    32    1
    39    31    33    1
    40    34    35    1
    41    34    36    1
    42    37    38    1
    43    37    39    1
    44    40    47   ar
    45    41    45   ar
    46    41    48   ar
    47    41    42    1
    48    43    47    1
    49    43    49    1
    50    43    44    1
    51    45    46    1
    52    47    48   ar
    53    49    51    1
    54    49    52    1
    55    49    50    1
    56    51    58   ar
    57    51    60   ar
    58    52    53    1
    59    52    54    1
    60    52    55    1
    61    56    62   ar
    62    56    64   ar
    63    56    57    1
    64    58    64   ar
    65    58    59    1
    66    60    62   ar
    67    60    61    1
    68    62    63    1
    69    64    65    1
@<TRIPOS>SUBSTRUCTURE
     1 RES1        1 GROUP             0 ****  ****    0  
@<TRIPOS>MOLECULE
LIGAND_00063
    65    69     1     0     0
SMALL
USER_CHARGES
****
Generated from the CSD

@<TRIPOS>ATOM
     1 C1      -0.5139  -3.8750 -15.9969   C.ar      1 RES1   0.0000
     2 H2      -1.3348  -4.3181 -16.5502   H         1 RES1   0.0000
     3 C3       1.5536  -2.7062 -14.5857   C.ar      1 RES1   0.0000
     4 H4       2.3605  -2.2372 -14.0325   H         1 RES1   0.0000
     5 C5      -0.0131  -4.5287 -14.8750   C.ar      1 RES1   0.0000
     6 C6       0.0103  -2.6661 -16.4194   C.ar      1 RES1   0.0000
     7 H7      -0.3804  -2.1687 -17.3008   H         1 RES1   0.0000
     8 C8       1.0306  -2.1122 -15.6988   C.ar      1 RES1   0.0000
     9 C9       1.0299  -3.9207 -14.1820   C.ar      1 RES1   0.0000
    10 H10      1.4480  -4.4065 -13.3077   H         1 RES1   0.0000
    11 C11     -0.5731  -5.8367 -14.4031   C.2       1 RES1   0.0000
    12 F12      1.5474  -0.9207 -16.1053   F         1 RES1   0.0000
    13 N13     -1.2186  -7.9483 -14.1439   N.am      1 RES1   0.0000
    14 C14     -1.4582  -9.4249 -14.2815   C.3       1 RES1   0.0000
    15 H15     -1.0416  -9.7474 -15.2345   H         1 RES1   0.0000
    16 C16     -2.0118  -7.8509 -11.7483   C.3       1 RES1   0.0000
    17 H17     -2.5615  -7.1390 -11.1360   H         1 RES1   0.0000
    18 H18     -2.6645  -8.6974 -11.9517   H         1 RES1   0.0000
    19 H19     -1.1614  -8.2090 -11.1719   H         1 RES1   0.0000
    20 C20     -1.1594  -5.9688 -13.1688   C.2       1 RES1   0.0000
    21 C21     -1.4160  -4.9157 -12.1531   C.ar      1 RES1   0.0000
    22 O22     -0.2155  -7.5044 -16.1160   O.2       1 RES1   0.0000
    23 C23     -0.6184  -7.1188 -15.0263   C.2       1 RES1   0.0000
    24 N24     -1.5657  -7.2272 -12.9946   N.pl3     1 RES1   0.0000
    25 C25     -0.9556 -11.6888 -13.3074   C.3       1 RES1   0.0000
    26 H26     -0.4737 -12.2018 -12.4764   H         1 RES1   0.0000
    27 H27     -0.5210 -12.0301 -14.2457   H         1 RES1   0.0000
    28 C28     -3.1521 -11.2767 -14.3832   C.3       1 RES1   0.0000
    29 H29     -2.7827 -11.6180 -15.3491   H         1 RES1   0.0000
    30 H30     -4.2155 -11.4975 -14.3026   H         1 RES1   0.0000
    31 C31     -2.9444  -9.7738 -14.2720   C.3       1 RES1   0.0000
    32 H32     -3.4307  -9.2838 -15.1142   H         1 RES1   0.0000
    33 H33     -3.3872  -9.4210 -13.3417   H         1 RES1   0.0000
    34 C34     -0.7438 -10.1913 -13.1677   C.3       1 RES1   0.0000
    35 H35     -1.1351  -9.8656 -12.2050   H         1 RES1   0.0000
    36 H36      0.3228  -9.9774 -13.2172   H         1 RES1   0.0000
    37 N37     -2.4196 -11.9927 -13.2977   N.4       1 RES1   1.0000
    38 H38     -2.8058 -11.7113 -12.4023   H         1 RES1   0.0000
    39 H39     -2.5466 -12.9921 -13.4220   H         1 RES1   0.0000
    40 N40     -0.3411  -4.2871 -11.6519   N.ar      1 RES1   0.0000
    41 C41     -2.8045  -3.6095 -10.7664   C.ar      1 RES1   0.0000
    42 H42     -3.7964  -3.3386 -10.4200   H         1 RES1   0.0000
    43 N43      0.5165  -2.7366 -10.1964   N.pl3     1 RES1   0.0000
    44 H44      1.4387  -3.0548 -10.4942   H         1 RES1   0.0000
    45 C45     -2.6965  -4.5965 -11.7253   C.ar      1 RES1   0.0000
    46 H46     -3.5713  -5.1000 -12.1232   H         1 RES1   0.0000
    47 C47     -0.5591  -3.3512 -10.7141   C.ar      1 RES1   0.0000
    48 N48     -1.7533  -2.9686 -10.2391   N.ar      1 RES1   0.0000
    49 C49      0.4502  -1.6819  -9.1850   C.3       1 RES1   0.0000
    50 H50     -0.0334  -2.0883  -8.2832   H         1 RES1   0.0000
    51 C51     -0.3416  -0.4781  -9.6565   C.ar      1 RES1   0.0000
    52 C52      1.8801  -1.2880  -8.8334   C.3       1 RES1   0.0000
    53 H53      1.8908  -0.5252  -8.0577   H         1 RES1   0.0000
    54 H54      2.4409  -2.1472  -8.4715   H         1 RES1   0.0000
    55 H55      2.3947  -0.8908  -9.7058   H         1 RES1   0.0000
    56 C56     -1.7923   1.7310 -10.5374   C.ar      1 RES1   0.0000
    57 H57     -2.3579   2.5909 -10.8804   H         1 RES1   0.0000
    58 C58     -0.3811  -0.1454 -11.0029   C.ar      1 RES1   0.0000
    59 H59      0.1599  -0.7527 -11.7210   H         1 RES1   0.0000
    60 C60     -1.0397   0.3168  -8.7577   C.ar      1 RES1   0.0000
    61 H61     -1.0221   0.0774  -7.6997   H         1 RES1   0.0000
    62 C62     -1.7606   1.4143  -9.1971   C.ar      1 RES1   0.0000
    63 H63     -2.3020   2.0262  -8.4833   H         1 RES1   0.0000
    64 C64     -1.1031   0.9519 -11.4405   C.ar      1 RES1   0.0000
    65 H65     -1.1260   1.1983 -12.4968   H         1 RES1   0.0000
@<TRIPOS>BOND
     1     1     5   ar
     2     1     6   ar
     3     1     2    1
     4     3     8   ar
     5     3     9   ar
     6     3     4    1
     7     5     9   ar
     8     5    11    1
     9     6     8   ar
    10     6     7    1
    11     8    12    1
    12     9    10    1
    13    11    20    2
    14    11    23    1
    15    13    14    1
    16    13    23   am
    17    13    24    1
    18    14    31    1
    19    14    34    1
    20    14    15    1
    21    16    24    1
    22    16    17    1
    23    16    18    1
    24    16    19    1
    25    20    21    1
    26    20    24    1
    27    21    40   ar
    28    21    45   ar
    29    22    23    2
    30    25    34    1
    31    25    37    1
    32    25    26    1
    33    25    27    1
    34    28    31    1
    35    28    37    1
    36    28    29    1
    37    28    30    1
    38    31    32    1
    39    31    33    1
    40    34    35    1
    41    34    36    1
    42    37    38    1
    43    37    39    1
    44    40    47   ar
    45    41    45   ar
    46    41    48   ar
    47    41    42    1
    48    43    47    1
    49    43    49    1
    50    43    44    1
    51    45    46    1
    52    47    48   ar
    53    49    51    1
    54    49    52    1
    55    49    50    1
    56    51    58   ar
    57    51    60   ar
    58    52    53    1
    59    52    54    1
    60    52    55    1
    61    56    62   ar
    62    56    64   ar
    63    56    57    1
    64    58    64   ar
    65    58    59    1
    66    60    62   ar
    67    60    61    1
    68    62    63    1
    69    64    65    1
@<TRIPOS>SUBSTRUCTURE
     1 RES1        1 GROUP             0 ****  ****    0  
@<TRIPOS>MOLECULE
LIGAND_00064
    65    69     1     0     0
SMALL
USER_CHARGES
****
Generated from the CSD

@<TRIPOS>ATOM
     1 C1      -2.7631  -4.3551 -16.3843   C.ar      1 RES1   0.0000
     2 H2      -3.3869  -5.2039 -16.6428   H         1 RES1   0.0000
     3 C3      -1.2124  -2.1668 -15.7219   C.ar      1 RES1   0.0000
     4 H4      -0.6125  -1.3008 -15.4624   H         1 RES1   0.0000
     5 C5      -1.8085  -4.4880 -15.3803   C.ar      1 RES1   0.0000
     6 C6      -2.9380  -3.1589 -17.0575   C.ar      1 RES1   0.0000
     7 H7      -3.6782  -3.0677 -17.8453   H         1 RES1   0.0000
     8 C8      -2.1575  -2.0941 -16.7051   C.ar      1 RES1   0.0000
     9 C9      -1.0383  -3.3718 -15.0661   C.ar      1 RES1   0.0000
    10 H10     -0.2809  -3.4429 -14.2938   H         1 RES1   0.0000
    11 C11     -1.6101  -5.7761 -14.6397   C.2       1 RES1   0.0000
    12 F12     -2.3278  -0.9130 -17.3593   F         1 RES1   0.0000
    13 N13     -1.2406  -7.9410 -14.1570   N.am      1 RES1   0.0000
    14 C14     -1.5106  -9.4109 -14.3092   C.3       1 RES1   0.0000
    15 H15     -1.2171  -9.7059 -15.3156   H         1 RES1   0.0000
    16 C16     -0.8997  -7.6987 -11.7768   C.3       1 RES1   0.0000
    17 H17     -1.4822  -8.4146 -11.2005   H         1 RES1   0.0000
    18 H18      0.0444  -8.1684 -12.0450   H         1 RES1   0.0000
    19 H19     -0.6844  -6.8442 -11.1387   H         1 RES1   0.0000
    20 C20     -1.7513  -5.9390 -13.3057   C.2       1 RES1   0.0000
    21 C21     -2.0254  -4.9138 -12.2663   C.ar      1 RES1   0.0000
    22 O22     -1.1751  -7.3947 -16.3880   O.2       1 RES1   0.0000
    23 C23     -1.3018  -7.0544 -15.2191   C.2       1 RES1   0.0000
    24 N24     -1.6302  -7.2794 -12.9734   N.3       1 RES1   0.0000
    25 C25     -0.9160 -11.7077 -13.4737   C.3       1 RES1   0.0000
    26 H26     -0.3413 -12.2498 -12.7242   H         1 RES1   0.0000
    27 H27     -0.6031 -12.0220 -14.4683   H         1 RES1   0.0000
    28 C28     -3.2233 -11.2475 -14.2589   C.3       1 RES1   0.0000
    29 H29     -2.9785 -11.5605 -15.2727   H         1 RES1   0.0000
    30 H30     -4.2710 -11.4637 -14.0552   H         1 RES1   0.0000
    31 C31     -2.9880  -9.7502 -14.1281   C.3       1 RES1   0.0000
    32 H32     -3.5686  -9.2307 -14.8889   H         1 RES1   0.0000
    33 H33     -3.3098  -9.4240 -13.1402   H         1 RES1   0.0000
    34 C34     -0.6731 -10.2168 -13.3154   C.3       1 RES1   0.0000
    35 H35     -0.9402  -9.9191 -12.3025   H         1 RES1   0.0000
    36 H36      0.3816 -10.0085 -13.4888   H         1 RES1   0.0000
    37 N37     -2.3708 -12.0022 -13.2938   N.4       1 RES1   1.0000
    38 H38     -2.6416 -11.7467 -12.3496   H         1 RES1   0.0000
    39 H39     -2.5225 -12.9962 -13.4320   H         1 RES1   0.0000
    40 N40     -3.3153  -4.6658 -11.9899   N.ar      1 RES1   0.0000
    41 C41     -1.3914  -3.2906 -10.6788   C.ar      1 RES1   0.0000
    42 H42     -0.6140  -2.7468 -10.1523   H         1 RES1   0.0000
    43 N43     -4.8658  -3.4583 -10.8082   N.pl3     1 RES1   0.0000
    44 H44     -5.5746  -3.9394 -11.3618   H         1 RES1   0.0000
    45 C45     -1.0092  -4.2301 -11.6151   C.ar      1 RES1   0.0000
    46 H46      0.0362  -4.4223 -11.8328   H         1 RES1   0.0000
    47 C47     -3.5758  -3.7226 -11.0704   C.ar      1 RES1   0.0000
    48 N48     -2.6681  -3.0123 -10.3849   N.ar      1 RES1   0.0000
    49 C49     -5.3174  -2.4773  -9.8218   C.3       1 RES1   0.0000
    50 H50     -4.9382  -1.4852 -10.1122   H         1 RES1   0.0000
    51 C51     -4.8222  -2.7930  -8.4240   C.ar      1 RES1   0.0000
    52 C52     -6.8407  -2.4463  -9.8644   C.3       1 RES1   0.0000
    53 H53     -7.2315  -1.7060  -9.1695   H         1 RES1   0.0000
    54 H54     -7.1954  -2.1951 -10.8618   H         1 RES1   0.0000
    55 H55     -7.2524  -3.4160  -9.5927   H         1 RES1   0.0000
    56 C56     -3.9197  -3.3869  -5.8563   C.ar      1 RES1   0.0000
    57 H57     -3.5675  -3.6183  -4.8566   H         1 RES1   0.0000
    58 C58     -5.1623  -3.9903  -7.8110   C.ar      1 RES1   0.0000
    59 H59     -5.7876  -4.7034  -8.3379   H         1 RES1   0.0000
    60 C60     -4.0236  -1.8964  -7.7274   C.ar      1 RES1   0.0000
    61 H61     -3.7461  -0.9529  -8.1856   H         1 RES1   0.0000
    62 C62     -3.5755  -2.1931  -6.4513   C.ar      1 RES1   0.0000
    63 H63     -2.9514  -1.4830  -5.9191   H         1 RES1   0.0000
    64 C64     -4.7126  -4.2856  -6.5353   C.ar      1 RES1   0.0000
    65 H65     -4.9855  -5.2268  -6.0697   H         1 RES1   0.0000
@<TRIPOS>BOND
     1     1     5   ar
     2     1     6   ar
     3     1     2    1
     4     3     8   ar
     5     3     9   ar
     6     3     4    1
     7     5     9   ar
     8     5    11    1
     9     6     8   ar
    10     6     7    1
    11     8    12    1
    12     9    10    1
    13    11    20    2
    14    11    23    1
    15    13    14    1
    16    13    23   am
    17    13    24    1
    18    14    31    1
    19    14    34    1
    20    14    15    1
    21    16    24    1
    22    16    17    1
    23    16    18    1
    24    16    19    1
    25    20    21    1
    26    20    24    1
    27    21    40   ar
    28    21    45   ar
    29    22    23    2
    30    25    34    1
    31    25    37    1
    32    25    26    1
    33    25    27    1
    34    28    31    1
    35    28    37    1
    36    28    29    1
    37    28    30    1
    38    31    32    1
    39    31    33    1
    40    34    35    1
    41    34    36    1
    42    37    38    1
    43    37    39    1
    44    40    47   ar
    45    41    45   ar
    46    41    48   ar
    47    41    42    1
    48    43    47    1
    49    43    49    1
    50    43    44    1
    51    45    46    1
    52    47    48   ar
    53    49    51    1
    54    49    52    1
    55    49    50    1
    56    51    58   ar
    57    51    60   ar
    58    52    53    1
    59    52    54    1
    60    52    55    1
    61    56    62   ar
    62    56    64   ar
    63    56    57    1
    64    58    64   ar
    65    58    59    1
    66    60    62   ar
    67    60    61    1
    68    62    63    1
    69    64    65    1
@<TRIPOS>SUBSTRUCTURE
     1 RES1        1 GROUP             0 ****  ****    0  
@<TRIPOS>MOLECULE
LIGAND_00065
    65    69     1     0     0
SMALL
USER_CHARGES
****
Generated from the CSD

@<TRIPOS>ATOM
     1 C1      -1.1695  -3.4197 -15.0826   C.ar      1 RES1   0.0000
     2 H2      -2.1951  -3.5540 -14.7562   H         1 RES1   0.0000
     3 C3       1.4456  -3.0391 -15.8878   C.ar      1 RES1   0.0000
     4 H4       2.4726  -2.8795 -16.1991   H         1 RES1   0.0000
     5 C5      -0.2767  -4.4832 -14.9889   C.ar      1 RES1   0.0000
     6 C6      -0.7747  -2.1900 -15.5790   C.ar      1 RES1   0.0000
     7 H7      -1.4803  -1.3697 -15.6572   H         1 RES1   0.0000
     8 C8       0.5261  -2.0322 -15.9666   C.ar      1 RES1   0.0000
     9 C9       1.0347  -4.2671 -15.4027   C.ar      1 RES1   0.0000
    10 H10      1.7541  -5.0763 -15.3496   H         1 RES1   0.0000
    11 C11     -0.6888  -5.8199 -14.4498   C.2       1 RES1   0.0000
    12 F12      0.9229  -0.8239 -16.4507   F         1 RES1   0.0000
    13 N13     -1.1385  -7.9692 -14.1020   N.am      1 RES1   0.0000
    14 C14     -1.2687  -9.4629 -14.1942   C.3       1 RES1   0.0000
    15 H15     -0.9100  -9.7734 -15.1745   H         1 RES1   0.0000
    16 C16     -1.7379  -7.8785 -11.6505   C.3       1 RES1   0.0000
    17 H17     -2.3119  -7.2069 -11.0154   H         1 RES1   0.0000
    18 H18     -2.3143  -8.7913 -11.7860   H         1 RES1   0.0000
    19 H19     -0.8166  -8.1329 -11.1306   H         1 RES1   0.0000
    20 C20     -1.1594  -5.9688 -13.1688   C.2       1 RES1   0.0000
    21 C21     -1.4160  -4.9157 -12.1531   C.ar      1 RES1   0.0000
    22 O22     -0.3394  -7.4938 -16.1583   O.2       1 RES1   0.0000
    23 C23     -0.6815  -7.1157 -15.0454   C.2       1 RES1   0.0000
    24 N24     -1.4472  -7.2509 -12.9400   N.pl3     1 RES1   0.0000
    25 C25     -0.5032 -11.6566 -13.2307   C.3       1 RES1   0.0000
    26 H26      0.0877 -12.1104 -12.4364   H         1 RES1   0.0000
    27 H27     -0.1240 -11.9841 -14.1976   H         1 RES1   0.0000
    28 C28     -2.8096 -11.4449 -14.1182   C.3       1 RES1   0.0000
    29 H29     -2.4975 -11.7783 -15.1069   H         1 RES1   0.0000
    30 H30     -3.8408 -11.7473 -13.9420   H         1 RES1   0.0000
    31 C31     -2.7155  -9.9281 -14.0500   C.3       1 RES1   0.0000
    32 H32     -3.3099  -9.4979 -14.8546   H         1 RES1   0.0000
    33 H33     -3.1044  -9.5900 -13.0906   H         1 RES1   0.0000
    34 C34     -0.4022 -10.1443 -13.1343   C.3       1 RES1   0.0000
    35 H35     -0.7350  -9.8283 -12.1468   H         1 RES1   0.0000
    36 H36      0.6355  -9.8477 -13.2798   H         1 RES1   0.0000
    37 N37     -1.9316 -12.0753 -13.0889   N.4       1 RES1   1.0000
    38 H38     -2.2616 -11.8047 -12.1680   H         1 RES1   0.0000
    39 H39     -1.9875 -13.0841 -13.1854   H         1 RES1   0.0000
    40 N40     -2.5040  -5.0736 -11.3829   N.ar      1 RES1   0.0000
    41 C41     -0.9401  -2.8952 -11.0360   C.ar      1 RES1   0.0000
    42 H42     -0.3048  -2.0264 -10.8983   H         1 RES1   0.0000
    43 N43     -3.8600  -4.2605  -9.7221   N.pl3     1 RES1   0.0000
    44 H44     -4.4633  -5.0624  -9.9047   H         1 RES1   0.0000
    45 C45     -0.5883  -3.8123 -12.0057   C.ar      1 RES1   0.0000
    46 H46      0.2923  -3.6750 -12.6245   H         1 RES1   0.0000
    47 C47     -2.7605  -4.1147 -10.4787   C.ar      1 RES1   0.0000
    48 N48     -2.0225  -3.0172 -10.2566   N.ar      1 RES1   0.0000
    49 C49     -4.2804  -3.3077  -8.6950   C.3       1 RES1   0.0000
    50 H50     -3.9856  -2.2952  -9.0115   H         1 RES1   0.0000
    51 C51     -3.6489  -3.5951  -7.3470   C.ar      1 RES1   0.0000
    52 C52     -5.8010  -3.3650  -8.6058   C.3       1 RES1   0.0000
    53 H53     -6.1723  -2.6490  -7.8756   H         1 RES1   0.0000
    54 H54     -6.2545  -3.1343  -9.5675   H         1 RES1   0.0000
    55 H55     -6.1311  -4.3571  -8.3050   H         1 RES1   0.0000
    56 C56     -2.4878  -4.1381  -4.8736   C.ar      1 RES1   0.0000
    57 H57     -2.0349  -4.3494  -3.9106   H         1 RES1   0.0000
    58 C58     -3.3166  -4.8935  -6.9882   C.ar      1 RES1   0.0000
    59 H59     -3.5118  -5.7069  -7.6792   H         1 RES1   0.0000
    60 C60     -3.3917  -2.5727  -6.4439   C.ar      1 RES1   0.0000
    61 H61     -3.6445  -1.5496  -6.7015   H         1 RES1   0.0000
    62 C62     -2.8142  -2.8441  -5.2150   C.ar      1 RES1   0.0000
    63 H63     -2.6183  -2.0348  -4.5195   H         1 RES1   0.0000
    64 C64     -2.7385  -5.1629  -5.7593   C.ar      1 RES1   0.0000
    65 H65     -2.4826  -6.1832  -5.4938   H         1 RES1   0.0000
@<TRIPOS>BOND
     1     1     5   ar
     2     1     6   ar
     3     1     2    1
     4     3     8   ar
     5     3     9   ar
     6     3     4    1
     7     5     9   ar
     8     5    11    1
     9     6     8   ar
    10     6     7    1
    11     8    12    1
    12     9    10    1
    13    11    20    2
    14    11    23    1
    15    13    14    1
    16    13    23   am
    17    13    24    1
    18    14    31    1
    19    14    34    1
    20    14    15    1
    21    16    24    1
    22    16    17    1
    23    16    18    1
    24    16    19    1
    25    20    21    1
    26    20    24    1
    27    21    40   ar
    28    21    45   ar
    29    22    23    2
    30    25    34    1
    31    25    37    1
    32    25    26    1
    33    25    27    1
    34    28    31    1
    35    28    37    1
    36    28    29    1
    37    28    30    1
    38    31    32    1
    39    31    33    1
    40    34    35    1
    41    34    36    1
    42    37    38    1
    43    37    39    1
    44    40    47   ar
    45    41    45   ar
    46    41    48   ar
    47    41    42    1
    48    43    47    1
    49    43    49    1
    50    43    44    1
    51    45    46    1
    52    47    48   ar
    53    49    51    1
    54    49    52    1
    55    49    50    1
    56    51    58   ar
    57    51    60   ar
    58    52    53    1
    59    52    54    1
    60    52    55    1
    61    56    62   ar
    62    56    64   ar
    63    56    57    1
    64    58    64   ar
    65    58    59    1
    66    60    62   ar
    67    60    61    1
    68    62    63    1
    69    64    65    1
@<TRIPOS>SUBSTRUCTURE
     1 RES1        1 GROUP             0 ****  ****    0  
@<TRIPOS>MOLECULE
LIGAND_00066
    65    69     1     0     0
SMALL
USER_CHARGES
****
Generated from the CSD

@<TRIPOS>ATOM
     1 C1      -1.1695  -3.4197 -15.0826   C.ar      1 RES1   0.0000
     2 H2      -2.1951  -3.5540 -14.7562   H         1 RES1   0.0000
     3 C3       1.4456  -3.0391 -15.8878   C.ar      1 RES1   0.0000
     4 H4       2.4726  -2.8795 -16.1991   H         1 RES1   0.0000
     5 C5      -0.2767  -4.4832 -14.9889   C.ar      1 RES1   0.0000
     6 C6      -0.7747  -2.1900 -15.5790   C.ar      1 RES1   0.0000
     7 H7      -1.4803  -1.3697 -15.6572   H         1 RES1   0.0000
     8 C8       0.5261  -2.0322 -15.9666   C.ar      1 RES1   0.0000
     9 C9       1.0347  -4.2671 -15.4027   C.ar      1 RES1   0.0000
    10 H10      1.7541  -5.0763 -15.3496   H         1 RES1   0.0000
    11 C11     -0.6888  -5.8199 -14.4498   C.2       1 RES1   0.0000
    12 F12      0.9228  -0.8238 -16.4507   F         1 RES1   0.0000
    13 N13     -1.1385  -7.9692 -14.1020   N.am      1 RES1   0.0000
    14 C14     -1.2686  -9.4629 -14.1942   C.3       1 RES1   0.0000
    15 H15     -0.9100  -9.7734 -15.1745   H         1 RES1   0.0000
    16 C16     -1.7379  -7.8785 -11.6505   C.3       1 RES1   0.0000
    17 H17     -2.3119  -7.2069 -11.0154   H         1 RES1   0.0000
    18 H18     -2.3143  -8.7913 -11.7860   H         1 RES1   0.0000
    19 H19     -0.8166  -8.1329 -11.1306   H         1 RES1   0.0000
    20 C20     -1.1594  -5.9688 -13.1688   C.2       1 RES1   0.0000
    21 C21     -1.4160  -4.9157 -12.1531   C.ar      1 RES1   0.0000
    22 O22     -0.3394  -7.4938 -16.1583   O.2       1 RES1   0.0000
    23 C23     -0.6815  -7.1157 -15.0454   C.2       1 RES1   0.0000
    24 N24     -1.4472  -7.2509 -12.9400   N.pl3     1 RES1   0.0000
    25 C25     -0.5032 -11.6566 -13.2307   C.3       1 RES1   0.0000
    26 H26      0.0877 -12.1104 -12.4364   H         1 RES1   0.0000
    27 H27     -0.1240 -11.9841 -14.1976   H         1 RES1   0.0000
    28 C28     -2.8096 -11.4449 -14.1182   C.3       1 RES1   0.0000
    29 H29     -2.4975 -11.7783 -15.1069   H         1 RES1   0.0000
    30 H30     -3.8408 -11.7473 -13.9420   H         1 RES1   0.0000
    31 C31     -2.7155  -9.9281 -14.0500   C.3       1 RES1   0.0000
    32 H32     -3.3099  -9.4979 -14.8546   H         1 RES1   0.0000
    33 H33     -3.1044  -9.5900 -13.0906   H         1 RES1   0.0000
    34 C34     -0.4022 -10.1443 -13.1343   C.3       1 RES1   0.0000
    35 H35     -0.7350  -9.8283 -12.1468   H         1 RES1   0.0000
    36 H36      0.6355  -9.8477 -13.2798   H         1 RES1   0.0000
    37 N37     -1.9316 -12.0753 -13.0889   N.4       1 RES1   1.0000
    38 H38     -2.2616 -11.8047 -12.1680   H         1 RES1   0.0000
    39 H39     -1.9875 -13.0841 -13.1854   H         1 RES1   0.0000
    40 N40     -2.5040  -5.0736 -11.3829   N.ar      1 RES1   0.0000
    41 C41     -0.9401  -2.8952 -11.0360   C.ar      1 RES1   0.0000
    42 H42     -0.3048  -2.0264 -10.8983   H         1 RES1   0.0000
    43 N43     -3.8600  -4.2605  -9.7221   N.pl3     1 RES1   0.0000
    44 H44     -4.0397  -3.5628  -9.0002   H         1 RES1   0.0000
    45 C45     -0.5883  -3.8123 -12.0057   C.ar      1 RES1   0.0000
    46 H46      0.2923  -3.6750 -12.6245   H         1 RES1   0.0000
    47 C47     -2.7605  -4.1147 -10.4787   C.ar      1 RES1   0.0000
    48 N48     -2.0225  -3.0172 -10.2566   N.ar      1 RES1   0.0000
    49 C49     -4.7825  -5.3908  -9.8262   C.3       1 RES1   0.0000
    50 H50     -4.2102  -6.2880 -10.1086   H         1 RES1   0.0000
    51 C51     -5.8633  -5.1611 -10.8643   C.ar      1 RES1   0.0000
    52 C52     -5.3925  -5.6181  -8.4479   C.3       1 RES1   0.0000
    53 H53     -6.0661  -6.4724  -8.4598   H         1 RES1   0.0000
    54 H54     -4.6180  -5.8077  -7.7078   H         1 RES1   0.0000
    55 H55     -5.9587  -4.7452  -8.1297   H         1 RES1   0.0000
    56 C56     -7.8539  -4.7264 -12.7640   C.ar      1 RES1   0.0000
    57 H57     -8.6286  -4.5568 -13.5044   H         1 RES1   0.0000
    58 C58     -6.7375  -4.0903 -10.7446   C.ar      1 RES1   0.0000
    59 H59     -6.6448  -3.4147  -9.9008   H         1 RES1   0.0000
    60 C60     -6.0049  -6.0126 -11.9514   C.ar      1 RES1   0.0000
    61 H61     -5.3341  -6.8577 -12.0652   H         1 RES1   0.0000
    62 C62     -6.9946  -5.7950 -12.8951   C.ar      1 RES1   0.0000
    63 H63     -7.0930  -6.4685 -13.7400   H         1 RES1   0.0000
    64 C64     -7.7260  -3.8739 -11.6895   C.ar      1 RES1   0.0000
    65 H65     -8.4009  -3.0312 -11.5833   H         1 RES1   0.0000
@<TRIPOS>BOND
     1     1     5   ar
     2     1     6   ar
     3     1     2    1
     4     3     8   ar
     5     3     9   ar
     6     3     4    1
     7     5     9   ar
     8     5    11    1
     9     6     8   ar
    10     6     7    1
    11     8    12    1
    12     9    10    1
    13    11    20    2
    14    11    23    1
    15    13    14    1
    16    13    23   am
    17    13    24    1
    18    14    31    1
    19    14    34    1
    20    14    15    1
    21    16    24    1
    22    16    17    1
    23    16    18    1
    24    16    19    1
    25    20    21    1
    26    20    24    1
    27    21    40   ar
    28    21    45   ar
    29    22    23    2
    30    25    34    1
    31    25    37    1
    32    25    26    1
    33    25    27    1
    34    28    31    1
    35    28    37    1
    36    28    29    1
    37    28    30    1
    38    31    32    1
    39    31    33    1
    40    34    35    1
    41    34    36    1
    42    37    38    1
    43    37    39    1
    44    40    47   ar
    45    41    45   ar
    46    41    48   ar
    47    41    42    1
    48    43    47    1
    49    43    49    1
    50    43    44    1
    51    45    46    1
    52    47    48   ar
    53    49    51    1
    54    49    52    1
    55    49    50    1
    56    51    58   ar
    57    51    60   ar
    58    52    53    1
    59    52    54    1
    60    52    55    1
    61    56    62   ar
    62    56    64   ar
    63    56    57    1
    64    58    64   ar
    65    58    59    1
    66    60    62   ar
    67    60    61    1
    68    62    63    1
    69    64    65    1
@<TRIPOS>SUBSTRUCTURE
     1 RES1        1 GROUP             0 ****  ****    0  
@<TRIPOS>MOLECULE
LIGAND_00067
    65    69     1     0     0
SMALL
USER_CHARGES
****
Generated from the CSD

@<TRIPOS>ATOM
     1 C1      -0.0040  -3.9167 -15.8783   C.ar      1 RES1   0.0000
     2 H2      -0.7797  -4.2852 -16.5409   H         1 RES1   0.0000
     3 C3       1.9517  -2.9362 -14.1914   C.ar      1 RES1   0.0000
     4 H4       2.7159  -2.5407 -13.5305   H         1 RES1   0.0000
     5 C5       0.2865  -4.6149 -14.7100   C.ar      1 RES1   0.0000
     6 C6       0.6730  -2.7568 -16.2109   C.ar      1 RES1   0.0000
     7 H7       0.4461  -2.2247 -17.1287   H         1 RES1   0.0000
     8 C8       1.6331  -2.2957 -15.3548   C.ar      1 RES1   0.0000
     9 C9       1.2772  -4.1018 -13.8774   C.ar      1 RES1   0.0000
    10 H10      1.5331  -4.6247 -12.9630   H         1 RES1   0.0000
    11 C11     -0.4409  -5.8707 -14.3345   C.2       1 RES1   0.0000
    12 F12      2.2992  -1.1525 -15.6729   F         1 RES1   0.0000
    13 N13     -1.3082  -7.9135 -14.2026   N.am      1 RES1   0.0000
    14 C14     -1.6725  -9.3565 -14.4065   C.3       1 RES1   0.0000
    15 H15     -1.2035  -9.6964 -15.3287   H         1 RES1   0.0000
    16 C16     -2.3275  -7.7858 -11.8956   C.3       1 RES1   0.0000
    17 H17     -2.9175  -7.0489 -11.3546   H         1 RES1   0.0000
    18 H18     -2.9868  -8.6020 -12.1837   H         1 RES1   0.0000
    19 H19     -1.5739  -8.1813 -11.2179   H         1 RES1   0.0000
    20 C20     -1.1594  -5.9688 -13.1688   C.2       1 RES1   0.0000
    21 C21     -1.4160  -4.9157 -12.1531   C.ar      1 RES1   0.0000
    22 O22     -0.0722  -7.5315 -16.0516   O.2       1 RES1   0.0000
    23 C23     -0.5450  -7.1297 -14.9965   C.2       1 RES1   0.0000
    24 N24     -1.6997  -7.1845 -13.0727   N.pl3     1 RES1   0.0000
    25 C25     -1.4761 -11.6797 -13.4626   C.3       1 RES1   0.0000
    26 H26     -1.1221 -12.2555 -12.6088   H         1 RES1   0.0000
    27 H27     -0.9924 -12.0403 -14.3692   H         1 RES1   0.0000
    28 C28     -3.5174 -11.0330 -14.7145   C.3       1 RES1   0.0000
    29 H29     -3.0958 -11.3867 -15.6542   H         1 RES1   0.0000
    30 H30     -4.5997 -11.1517 -14.7347   H         1 RES1   0.0000
    31 C31     -3.1798  -9.5602 -14.5388   C.3       1 RES1   0.0000
    32 H32     -3.5393  -9.0066 -15.4049   H         1 RES1   0.0000
    33 H33     -3.6697  -9.1872 -13.6406   H         1 RES1   0.0000
    34 C34     -1.1375 -10.2133 -13.2585   C.3       1 RES1   0.0000
    35 H35     -1.5820  -9.8730 -12.3244   H         1 RES1   0.0000
    36 H36     -0.0554 -10.1025 -13.2071   H         1 RES1   0.0000
    37 N37     -2.9570 -11.8408 -13.5914   N.4       1 RES1   1.0000
    38 H38     -3.3945 -11.5435 -12.7251   H         1 RES1   0.0000
    39 H39     -3.1660 -12.8201 -13.7573   H         1 RES1   0.0000
    40 N40     -1.4457  -5.3100 -10.8704   N.ar      1 RES1   0.0000
    41 C41     -1.8713  -2.7071 -11.4663   C.ar      1 RES1   0.0000
    42 H42     -2.0353  -1.6631 -11.7123   H         1 RES1   0.0000
    43 N43     -1.7536  -4.7680  -8.6637   N.pl3     1 RES1   0.0000
    44 H44     -1.8689  -4.0527  -7.9458   H         1 RES1   0.0000
    45 C45     -1.6289  -3.5895 -12.4997   C.ar      1 RES1   0.0000
    46 H46     -1.6086  -3.2613 -13.5337   H         1 RES1   0.0000
    47 C47     -1.7025  -4.3713  -9.9453   C.ar      1 RES1   0.0000
    48 N48     -1.9163  -3.0679 -10.1773   N.ar      1 RES1   0.0000
    49 C49     -1.5912  -6.1548  -8.2279   C.3       1 RES1   0.0000
    50 H50     -0.9425  -6.6770  -8.9482   H         1 RES1   0.0000
    51 C51     -2.9127  -6.8932  -8.1450   C.ar      1 RES1   0.0000
    52 C52     -0.8940  -6.1349  -6.8726   C.3       1 RES1   0.0000
    53 H53     -0.7178  -7.1469  -6.5140   H         1 RES1   0.0000
    54 H54      0.0658  -5.6267  -6.9379   H         1 RES1   0.0000
    55 H55     -1.5026  -5.6157  -6.1351   H         1 RES1   0.0000
    56 C56     -5.3465  -8.2388  -7.9832   C.ar      1 RES1   0.0000
    57 H57     -6.2946  -8.7627  -7.9209   H         1 RES1   0.0000
    58 C58     -3.9492  -6.3953  -7.3686   C.ar      1 RES1   0.0000
    59 H59     -3.8098  -5.4710  -6.8177   H         1 RES1   0.0000
    60 C60     -3.1154  -8.0790  -8.8376   C.ar      1 RES1   0.0000
    61 H61     -2.3188  -8.4886  -9.4498   H         1 RES1   0.0000
    62 C62     -4.3258  -8.7466  -8.7565   C.ar      1 RES1   0.0000
    63 H63     -4.4702  -9.6721  -9.3039   H         1 RES1   0.0000
    64 C64     -5.1591  -7.0637  -7.2893   C.ar      1 RES1   0.0000
    65 H65     -5.9608  -6.6610  -6.6794   H         1 RES1   0.0000
@<TRIPOS>BOND
     1     1     5   ar
     2     1     6   ar
     3     1     2    1
     4     3     8   ar
     5     3     9   ar
     6     3     4    1
     7     5     9   ar
     8     5    11    1
     9     6     8   ar
    10     6     7    1
    11     8    12    1
    12     9    10    1
    13    11    20    2
    14    11    23    1
    15    13    14    1
    16    13    23   am
    17    13    24    1
    18    14    31    1
    19    14    34    1
    20    14    15    1
    21    16    24    1
    22    16    17    1
    23    16    18    1
    24    16    19    1
    25    20    21    1
    26    20    24    1
    27    21    40   ar
    28    21    45   ar
    29    22    23    2
    30    25    34    1
    31    25    37    1
    32    25    26    1
    33    25    27    1
    34    28    31    1
    35    28    37    1
    36    28    29    1
    37    28    30    1
    38    31    32    1
    39    31    33    1
    40    34    35    1
    41    34    36    1
    42    37    38    1
    43    37    39    1
    44    40    47   ar
    45    41    45   ar
    46    41    48   ar
    47    41    42    1
    48    43    47    1
    49    43    49    1
    50    43    44    1
    51    45    46    1
    52    47    48   ar
    53    49    51    1
    54    49    52    1
    55    49    50    1
    56    51    58   ar
    57    51    60   ar
    58    52    53    1
    59    52    54    1
    60    52    55    1
    61    56    62   ar
    62    56    64   ar
    63    56    57    1
    64    58    64   ar
    65    58    59    1
    66    60    62   ar
    67    60    61    1
    68    62    63    1
    69    64    65    1
@<TRIPOS>SUBSTRUCTURE
     1 RES1        1 GROUP             0 ****  ****    0  
@<TRIPOS>MOLECULE
LIGAND_00068
    65    69     1     0     0
SMALL
USER_CHARGES
****
Generated from the CSD

@<TRIPOS>ATOM
     1 C1       0.5866  -4.0768 -15.6082   C.ar      1 RES1   0.0000
     2 H2      -0.0979  -4.4245 -16.3744   H         1 RES1   0.0000
     3 C3       2.3129  -3.1484 -13.6615   C.ar      1 RES1   0.0000
     4 H4       2.9878  -2.7732 -12.8993   H         1 RES1   0.0000
     5 C5       0.6588  -4.7560 -14.3957   C.ar      1 RES1   0.0000
     6 C6       1.3671  -2.9615 -15.8561   C.ar      1 RES1   0.0000
     7 H7       1.3108  -2.4443 -16.8081   H         1 RES1   0.0000
     8 C8       2.2092  -2.5252 -14.8724   C.ar      1 RES1   0.0000
     9 C9       1.5375  -4.2700 -13.4316   C.ar      1 RES1   0.0000
    10 H10      1.6234  -4.7795 -12.4786   H         1 RES1   0.0000
    11 C11     -0.1830  -5.9634 -14.1113   C.2       1 RES1   0.0000
    12 F12      2.9757  -1.4256 -15.1071   F         1 RES1   0.0000
    13 N13     -1.2776  -7.9110 -14.2031   N.am      1 RES1   0.0000
    14 C14     -1.6139  -9.3619 -14.3994   C.3       1 RES1   0.0000
    15 H15     -1.0245  -9.7351 -15.2357   H         1 RES1   0.0000
    16 C16     -3.0702  -7.4062 -12.6099   C.3       1 RES1   0.0000
    17 H17     -3.3313  -6.6739 -11.8488   H         1 RES1   0.0000
    18 H18     -3.7576  -7.2864 -13.4448   H         1 RES1   0.0000
    19 H19     -3.2160  -8.3992 -12.1900   H         1 RES1   0.0000
    20 C20     -1.0688  -6.0097 -13.0848   C.2       1 RES1   0.0000
    21 C21     -1.4087  -4.9383 -12.1137   C.ar      1 RES1   0.0000
    22 O22      0.3501  -7.6208 -15.8119   O.2       1 RES1   0.0000
    23 C23     -0.2752  -7.1991 -14.8478   C.2       1 RES1   0.0000
    24 N24     -1.6852  -7.2282 -13.0474   N.3       1 RES1   0.0000
    25 C25     -1.5524 -11.6469 -13.3497   C.3       1 RES1   0.0000
    26 H26     -1.3190 -12.1886 -12.4343   H         1 RES1   0.0000
    27 H27     -0.9507 -12.0402 -14.1677   H         1 RES1   0.0000
    28 C28     -3.4031 -11.0547 -14.8912   C.3       1 RES1   0.0000
    29 H29     -2.8584 -11.4426 -15.7507   H         1 RES1   0.0000
    30 H30     -4.4729 -11.1774 -15.0540   H         1 RES1   0.0000
    31 C31     -3.0895  -9.5751 -14.7276   C.3       1 RES1   0.0000
    32 H32     -3.3267  -9.0561 -15.6550   H         1 RES1   0.0000
    33 H33     -3.6963  -9.1697 -13.9193   H         1 RES1   0.0000
    34 C34     -1.2417 -10.1727 -13.1575   C.3       1 RES1   0.0000
    35 H35     -1.8084  -9.7984 -12.3061   H         1 RES1   0.0000
    36 H36     -0.1764 -10.0566 -12.9637   H         1 RES1   0.0000
    37 N37     -3.0024 -11.8173 -13.6724   N.4       1 RES1   1.0000
    38 H38     -3.5531 -11.4887 -12.8857   H         1 RES1   0.0000
    39 H39     -3.1889 -12.8029 -13.8278   H         1 RES1   0.0000
    40 N40     -1.6971  -5.3286 -10.8622   N.ar      1 RES1   0.0000
    41 C41     -1.7864  -2.6985 -11.4834   C.ar      1 RES1   0.0000
    42 H42     -1.8145  -1.6442 -11.7382   H         1 RES1   0.0000
    43 N43     -2.3404  -4.7619  -8.7354   N.pl3     1 RES1   0.0000
    44 H44     -2.3506  -5.7623  -8.5365   H         1 RES1   0.0000
    45 C45     -1.4428  -3.5986 -12.4718   C.ar      1 RES1   0.0000
    46 H46     -1.2129  -3.2734 -13.4811   H         1 RES1   0.0000
    47 C47     -2.0310  -4.3711  -9.9821   C.ar      1 RES1   0.0000
    48 N48     -2.0881  -3.0541 -10.2279   N.ar      1 RES1   0.0000
    49 C49     -2.7252  -3.8467  -7.6612   C.3       1 RES1   0.0000
    50 H50     -3.2702  -2.9968  -8.1006   H         1 RES1   0.0000
    51 C51     -1.5275  -3.3112  -6.9015   C.ar      1 RES1   0.0000
    52 C52     -3.6682  -4.5983  -6.7290   C.3       1 RES1   0.0000
    53 H53     -4.0131  -3.9516  -5.9250   H         1 RES1   0.0000
    54 H54     -4.5399  -4.9611  -7.2696   H         1 RES1   0.0000
    55 H55     -3.1660  -5.4542  -6.2830   H         1 RES1   0.0000
    56 C56      0.6810  -2.3404  -5.5086   C.ar      1 RES1   0.0000
    57 H57      1.5414  -1.9618  -4.9667   H         1 RES1   0.0000
    58 C58     -0.3747  -4.0733  -6.7778   C.ar      1 RES1   0.0000
    59 H59     -0.3333  -5.0594  -7.2287   H         1 RES1   0.0000
    60 C60     -1.5561  -2.0544  -6.3129   C.ar      1 RES1   0.0000
    61 H61     -2.4472  -1.4409  -6.3948   H         1 RES1   0.0000
    62 C62     -0.4574  -1.5730  -5.6212   C.ar      1 RES1   0.0000
    63 H63     -0.4938  -0.5884  -5.1668   H         1 RES1   0.0000
    64 C64      0.7231  -3.5901  -6.0864   C.ar      1 RES1   0.0000
    65 H65      1.6181  -4.1971  -5.9998   H         1 RES1   0.0000
@<TRIPOS>BOND
     1     1     5   ar
     2     1     6   ar
     3     1     2    1
     4     3     8   ar
     5     3     9   ar
     6     3     4    1
     7     5     9   ar
     8     5    11    1
     9     6     8   ar
    10     6     7    1
    11     8    12    1
    12     9    10    1
    13    11    20    2
    14    11    23    1
    15    13    14    1
    16    13    23   am
    17    13    24    1
    18    14    31    1
    19    14    34    1
    20    14    15    1
    21    16    24    1
    22    16    17    1
    23    16    18    1
    24    16    19    1
    25    20    21    1
    26    20    24    1
    27    21    40   ar
    28    21    45   ar
    29    22    23    2
    30    25    34    1
    31    25    37    1
    32    25    26    1
    33    25    27    1
    34    28    31    1
    35    28    37    1
    36    28    29    1
    37    28    30    1
    38    31    32    1
    39    31    33    1
    40    34    35    1
    41    34    36    1
    42    37    38    1
    43    37    39    1
    44    40    47   ar
    45    41    45   ar
    46    41    48   ar
    47    41    42    1
    48    43    47    1
    49    43    49    1
    50    43    44    1
    51    45    46    1
    52    47    48   ar
    53    49    51    1
    54    49    52    1
    55    49    50    1
    56    51    58   ar
    57    51    60   ar
    58    52    53    1
    59    52    54    1
    60    52    55    1
    61    56    62   ar
    62    56    64   ar
    63    56    57    1
    64    58    64   ar
    65    58    59    1
    66    60    62   ar
    67    60    61    1
    68    62    63    1
    69    64    65    1
@<TRIPOS>SUBSTRUCTURE
     1 RES1        1 GROUP             0 ****  ****    0  
@<TRIPOS>MOLECULE
LIGAND_00069
    65    69     1     0     0
SMALL
USER_CHARGES
****
Generated from the CSD

@<TRIPOS>ATOM
     1 C1      -0.7649  -3.8365 -15.9786   C.ar      1 RES1   0.0000
     2 H2      -1.6373  -4.2797 -16.4466   H         1 RES1   0.0000
     3 C3       1.4334  -2.6678 -14.7813   C.ar      1 RES1   0.0000
     4 H4       2.2915  -2.1988 -14.3114   H         1 RES1   0.0000
     5 C5      -0.1365  -4.5042 -14.9317   C.ar      1 RES1   0.0000
     6 C6      -0.3033  -2.6137 -16.4327   C.ar      1 RES1   0.0000
     7 H7      -0.7940  -2.1052 -17.2558   H         1 RES1   0.0000
     8 C8       0.7846  -2.0602 -15.8183   C.ar      1 RES1   0.0000
     9 C9       0.9702  -3.8958 -14.3461   C.ar      1 RES1   0.0000
    10 H10      1.4873  -4.3922 -13.5328   H         1 RES1   0.0000
    11 C11     -0.6273  -5.8275 -14.4264   C.2       1 RES1   0.0000
    12 F12      1.2408  -0.8552 -16.2560   F         1 RES1   0.0000
    13 N13     -1.1813  -7.9591 -14.1233   N.am      1 RES1   0.0000
    14 C14     -1.3696  -9.4450 -14.2382   C.3       1 RES1   0.0000
    15 H15     -0.9785  -9.7614 -15.2041   H         1 RES1   0.0000
    16 C16     -1.8831  -7.8670 -11.6991   C.3       1 RES1   0.0000
    17 H17     -2.4351  -7.1701 -11.0719   H         1 RES1   0.0000
    18 H18     -2.5106  -8.7395 -11.8691   H         1 RES1   0.0000
    19 H19     -0.9977  -8.1868 -11.1537   H         1 RES1   0.0000
    20 C20     -1.1594  -5.9688 -13.1688   C.2       1 RES1   0.0000
    21 C21     -1.4160  -4.9157 -12.1531   C.ar      1 RES1   0.0000
    22 O22     -0.2737  -7.4980 -16.1373   O.2       1 RES1   0.0000
    23 C23     -0.6481  -7.1166 -15.0360   C.2       1 RES1   0.0000
    24 N24     -1.5103  -7.2397 -12.9675   N.pl3     1 RES1   0.0000
    25 C25     -0.7432 -11.6782 -13.2647   C.3       1 RES1   0.0000
    26 H26     -0.2100 -12.1640 -12.4489   H         1 RES1   0.0000
    27 H27     -0.3330 -12.0125 -14.2165   H         1 RES1   0.0000
    28 C28     -2.9943 -11.3604 -14.2566   C.3       1 RES1   0.0000
    29 H29     -2.6502 -11.6975 -15.2332   H         1 RES1   0.0000
    30 H30     -4.0445 -11.6203 -14.1321   H         1 RES1   0.0000
    31 C31     -2.8399  -9.8497 -14.1669   C.3       1 RES1   0.0000
    32 H32     -3.3771  -9.3871 -14.9936   H         1 RES1   0.0000
    33 H33     -3.2590  -9.5042 -13.2231   H         1 RES1   0.0000
    34 C34     -0.5834 -10.1724 -13.1468   C.3       1 RES1   0.0000
    35 H35     -0.9488  -9.8517 -12.1723   H         1 RES1   0.0000
    36 H36      0.4716  -9.9189 -13.2402   H         1 RES1   0.0000
    37 N37     -2.1930 -12.0370 -13.1946   N.4       1 RES1   1.0000
    38 H38     -2.5544 -11.7612 -12.2871   H         1 RES1   0.0000
    39 H39     -2.2866 -13.0417 -13.3049   H         1 RES1   0.0000
    40 N40     -2.6992  -4.6898 -11.8302   N.ar      1 RES1   0.0000
    41 C41     -0.7580  -3.2243 -10.6488   C.ar      1 RES1   0.0000
    42 H42      0.0265  -2.6440 -10.1743   H         1 RES1   0.0000
    43 N43     -4.2293  -3.4806 -10.6241   N.pl3     1 RES1   0.0000
    44 H44     -4.9475  -4.0090 -11.1193   H         1 RES1   0.0000
    45 C45     -0.3913  -4.1856 -11.5689   C.ar      1 RES1   0.0000
    46 H46      0.6486  -4.3597 -11.8246   H         1 RES1   0.0000
    47 C47     -2.9451  -3.7222 -10.9322   C.ar      1 RES1   0.0000
    48 N48     -2.0280  -2.9671 -10.3100   N.ar      1 RES1   0.0000
    49 C49     -4.6654  -2.4627  -9.6684   C.3       1 RES1   0.0000
    50 H50     -3.9621  -1.6165  -9.7093   H         1 RES1   0.0000
    51 C51     -4.7086  -2.9861  -8.2461   C.ar      1 RES1   0.0000
    52 C52     -6.0399  -1.9733 -10.1092   C.3       1 RES1   0.0000
    53 H53     -6.4500  -1.2711  -9.3863   H         1 RES1   0.0000
    54 H54     -5.9821  -1.4721 -11.0731   H         1 RES1   0.0000
    55 H55     -6.7330  -2.8068 -10.2020   H         1 RES1   0.0000
    56 C56     -4.8026  -3.9524  -5.6351   C.ar      1 RES1   0.0000
    57 H57     -4.8388  -4.3294  -4.6183   H         1 RES1   0.0000
    58 C58     -5.8581  -3.5852  -7.7516   C.ar      1 RES1   0.0000
    59 H59     -6.7309  -3.6780  -8.3895   H         1 RES1   0.0000
    60 C60     -3.6067  -2.8769  -7.4089   C.ar      1 RES1   0.0000
    61 H61     -2.6973  -2.4105  -7.7728   H         1 RES1   0.0000
    62 C62     -3.6548  -3.3580  -6.1114   C.ar      1 RES1   0.0000
    63 H63     -2.7857  -3.2664  -5.4686   H         1 RES1   0.0000
    64 C64     -5.9042  -4.0664  -6.4543   C.ar      1 RES1   0.0000
    65 H65     -6.8097  -4.5341  -6.0824   H         1 RES1   0.0000
@<TRIPOS>BOND
     1     1     5   ar
     2     1     6   ar
     3     1     2    1
     4     3     8   ar
     5     3     9   ar
     6     3     4    1
     7     5     9   ar
     8     5    11    1
     9     6     8   ar
    10     6     7    1
    11     8    12    1
    12     9    10    1
    13    11    20    2
    14    11    23    1
    15    13    14    1
    16    13    23   am
    17    13    24    1
    18    14    31    1
    19    14    34    1
    20    14    15    1
    21    16    24    1
    22    16    17    1
    23    16    18    1
    24    16    19    1
    25    20    21    1
    26    20    24    1
    27    21    40   ar
    28    21    45   ar
    29    22    23    2
    30    25    34    1
    31    25    37    1
    32    25    26    1
    33    25    27    1
    34    28    31    1
    35    28    37    1
    36    28    29    1
    37    28    30    1
    38    31    32    1
    39    31    33    1
    40    34    35    1
    41    34    36    1
    42    37    38    1
    43    37    39    1
    44    40    47   ar
    45    41    45   ar
    46    41    48   ar
    47    41    42    1
    48    43    47    1
    49    43    49    1
    50    43    44    1
    51    45    46    1
    52    47    48   ar
    53    49    51    1
    54    49    52    1
    55    49    50    1
    56    51    58   ar
    57    51    60   ar
    58    52    53    1
    59    52    54    1
    60    52    55    1
    61    56    62   ar
    62    56    64   ar
    63    56    57    1
    64    58    64   ar
    65    58    59    1
    66    60    62   ar
    67    60    61    1
    68    62    63    1
    69    64    65    1
@<TRIPOS>SUBSTRUCTURE
     1 RES1        1 GROUP             0 ****  ****    0  
@<TRIPOS>MOLECULE
LIGAND_00070
    65    69     1     0     0
SMALL
USER_CHARGES
****
Generated from the CSD

@<TRIPOS>ATOM
     1 C1      -0.3701  -3.8964 -15.9918   C.ar      1 RES1   0.0000
     2 H2      -1.1642  -4.3349 -16.5863   H         1 RES1   0.0000
     3 C3       1.6297  -2.7392 -14.4773   C.ar      1 RES1   0.0000
     4 H4       2.4102  -2.2746 -13.8839   H         1 RES1   0.0000
     5 C5       0.0599  -4.5461 -14.8386   C.ar      1 RES1   0.0000
     6 C6       0.1911  -2.6974 -16.3942   C.ar      1 RES1   0.0000
     7 H7      -0.1441  -2.2032 -17.2999   H         1 RES1   0.0000
     8 C8       1.1764  -2.1489 -15.6225   C.ar      1 RES1   0.0000
     9 C9       1.0700  -3.9440 -14.0935   C.ar      1 RES1   0.0000
    10 H10      1.4331  -4.4269 -13.1935   H         1 RES1   0.0000
    11 C11     -0.5410  -5.8434 -14.3880   C.2       1 RES1   0.0000
    12 F12      1.7291  -0.9670 -16.0092   F         1 RES1   0.0000
    13 N13     -1.2406  -7.9410 -14.1570   N.am      1 RES1   0.0000
    14 C14     -1.5106  -9.4109 -14.3092   C.3       1 RES1   0.0000
    15 H15     -1.0788  -9.7377 -15.2540   H         1 RES1   0.0000
    16 C16     -2.0882  -7.8386 -11.7803   C.3       1 RES1   0.0000
    17 H17     -2.6361  -7.1177 -11.1770   H         1 RES1   0.0000
    18 H18     -2.7550  -8.6688 -12.0043   H         1 RES1   0.0000
    19 H19     -1.2602  -8.2192 -11.1860   H         1 RES1   0.0000
    20 C20     -1.1594  -5.9688 -13.1688   C.2       1 RES1   0.0000
    21 C21     -1.4160  -4.9157 -12.1531   C.ar      1 RES1   0.0000
    22 O22     -0.1808  -7.5094 -16.1020   O.2       1 RES1   0.0000
    23 C23     -0.6007  -7.1206 -15.0199   C.2       1 RES1   0.0000
    24 N24     -1.5984  -7.2184 -13.0119   N.pl3     1 RES1   0.0000
    25 C25     -1.0832 -11.6911 -13.3372   C.3       1 RES1   0.0000
    26 H26     -0.6331 -12.2196 -12.4981   H         1 RES1   0.0000
    27 H27     -0.6343 -12.0371 -14.2671   H         1 RES1   0.0000
    28 C28     -3.2435 -11.2227 -14.4623   C.3       1 RES1   0.0000
    29 H29     -2.8590 -11.5671 -15.4212   H         1 RES1   0.0000
    30 H30     -4.3132 -11.4194 -14.4083   H         1 RES1   0.0000
    31 C31     -3.0042  -9.7256 -14.3371   C.3       1 RES1   0.0000
    32 H32     -3.4589  -9.2199 -15.1876   H         1 RES1   0.0000
    33 H33     -3.4608  -9.3678 -13.4154   H         1 RES1   0.0000
    34 C34     -0.8406 -10.1997 -13.1835   C.3       1 RES1   0.0000
    35 H35     -1.2472  -9.8704 -12.2284   H         1 RES1   0.0000
    36 H36      0.2315 -10.0101 -13.2063   H         1 RES1   0.0000
    37 N37     -2.5535 -11.9614 -13.3641   N.4       1 RES1   1.0000
    38 H38     -2.9545 -11.6761 -12.4764   H         1 RES1   0.0000
    39 H39     -2.7004 -12.9568 -13.4974   H         1 RES1   0.0000
    40 N40     -0.4619  -4.7249 -11.2286   N.ar      1 RES1   0.0000
    41 C41     -2.7124  -3.2288 -11.1379   C.ar      1 RES1   0.0000
    42 H42     -3.6155  -2.6280 -11.1111   H         1 RES1   0.0000
    43 N43      0.2500  -3.6161  -9.3518   N.pl3     1 RES1   0.0000
    44 H44      0.1058  -2.8794  -8.6613   H         1 RES1   0.0000
    45 C45     -2.5846  -4.1682 -12.1411   C.ar      1 RES1   0.0000
    46 H46     -3.3622  -4.3161 -12.8831   H         1 RES1   0.0000
    47 C47     -0.6941  -3.7933 -10.2898   C.ar      1 RES1   0.0000
    48 N48     -1.7846  -3.0185 -10.1952   N.ar      1 RES1   0.0000
    49 C49      1.5015  -4.3712  -9.2957   C.3       1 RES1   0.0000
    50 H50      1.8138  -4.6129 -10.3235   H         1 RES1   0.0000
    51 C51      1.3618  -5.6644  -8.5169   C.ar      1 RES1   0.0000
    52 C52      2.5575  -3.4697  -8.6669   C.3       1 RES1   0.0000
    53 H53      3.5218  -3.9722  -8.6297   H         1 RES1   0.0000
    54 H54      2.6753  -2.5525  -9.2402   H         1 RES1   0.0000
    55 H55      2.2770  -3.2002  -7.6508   H         1 RES1   0.0000
    56 C56      1.1010  -8.0327  -7.0734   C.ar      1 RES1   0.0000
    57 H57      0.9987  -8.9551  -6.5115   H         1 RES1   0.0000
    58 C58      0.9813  -5.6447  -7.1828   C.ar      1 RES1   0.0000
    59 H59      0.7835  -4.6954  -6.6960   H         1 RES1   0.0000
    60 C60      1.6121  -6.8916  -9.1154   C.ar      1 RES1   0.0000
    61 H61      1.9128  -6.9320 -10.1571   H         1 RES1   0.0000
    62 C62      1.4817  -8.0680  -8.3968   C.ar      1 RES1   0.0000
    63 H63      1.6800  -9.0199  -8.8779   H         1 RES1   0.0000
    64 C64      0.8506  -6.8219  -6.4660   C.ar      1 RES1   0.0000
    65 H65      0.5505  -6.7904  -5.4239   H         1 RES1   0.0000
@<TRIPOS>BOND
     1     1     5   ar
     2     1     6   ar
     3     1     2    1
     4     3     8   ar
     5     3     9   ar
     6     3     4    1
     7     5     9   ar
     8     5    11    1
     9     6     8   ar
    10     6     7    1
    11     8    12    1
    12     9    10    1
    13    11    20    2
    14    11    23    1
    15    13    14    1
    16    13    23   am
    17    13    24    1
    18    14    31    1
    19    14    34    1
    20    14    15    1
    21    16    24    1
    22    16    17    1
    23    16    18    1
    24    16    19    1
    25    20    21    1
    26    20    24    1
    27    21    40   ar
    28    21    45   ar
    29    22    23    2
    30    25    34    1
    31    25    37    1
    32    25    26    1
    33    25    27    1
    34    28    31    1
    35    28    37    1
    36    28    29    1
    37    28    30    1
    38    31    32    1
    39    31    33    1
    40    34    35    1
    41    34    36    1
    42    37    38    1
    43    37    39    1
    44    40    47   ar
    45    41    45   ar
    46    41    48   ar
    47    41    42    1
    48    43    47    1
    49    43    49    1
    50    43    44    1
    51    45    46    1
    52    47    48   ar
    53    49    51    1
    54    49    52    1
    55    49    50    1
    56    51    58   ar
    57    51    60   ar
    58    52    53    1
    59    52    54    1
    60    52    55    1
    61    56    62   ar
    62    56    64   ar
    63    56    57    1
    64    58    64   ar
    65    58    59    1
    66    60    62   ar
    67    60    61    1
    68    62    63    1
    69    64    65    1
@<TRIPOS>SUBSTRUCTURE
     1 RES1        1 GROUP             0 ****  ****    0  
@<TRIPOS>MOLECULE
LIGAND_00071
    65    69     1     0     0
SMALL
USER_CHARGES
****
Generated from the CSD

@<TRIPOS>ATOM
     1 C1      -0.7027  -3.3903 -14.9781   C.ar      1 RES1   0.0000
     2 H2      -1.7635  -3.4211 -14.7543   H         1 RES1   0.0000
     3 C3       2.0037  -3.2747 -15.5205   C.ar      1 RES1   0.0000
     4 H4       3.0672  -3.2194 -15.7282   H         1 RES1   0.0000
     5 C5       0.0599  -4.5461 -14.8386   C.ar      1 RES1   0.0000
     6 C6      -0.1343  -2.1985 -15.3916   C.ar      1 RES1   0.0000
     7 H7      -0.7388  -1.3050 -15.5067   H         1 RES1   0.0000
     8 C8       1.2073  -2.1727 -15.6497   C.ar      1 RES1   0.0000
     9 C9       1.4207  -4.4628 -15.1196   C.ar      1 RES1   0.0000
    10 H10      2.0424  -5.3462 -15.0278   H         1 RES1   0.0000
    11 C11     -0.5410  -5.8434 -14.3880   C.2       1 RES1   0.0000
    12 F12      1.7741  -1.0026 -16.0515   F         1 RES1   0.0000
    13 N13     -1.2406  -7.9410 -14.1570   N.am      1 RES1   0.0000
    14 C14     -1.5106  -9.4109 -14.3092   C.3       1 RES1   0.0000
    15 H15     -1.0788  -9.7377 -15.2540   H         1 RES1   0.0000
    16 C16     -2.0882  -7.8386 -11.7803   C.3       1 RES1   0.0000
    17 H17     -2.6361  -7.1177 -11.1770   H         1 RES1   0.0000
    18 H18     -2.7550  -8.6688 -12.0043   H         1 RES1   0.0000
    19 H19     -1.2602  -8.2192 -11.1860   H         1 RES1   0.0000
    20 C20     -1.1594  -5.9688 -13.1688   C.2       1 RES1   0.0000
    21 C21     -1.4160  -4.9157 -12.1531   C.ar      1 RES1   0.0000
    22 O22     -0.1808  -7.5094 -16.1020   O.2       1 RES1   0.0000
    23 C23     -0.6007  -7.1206 -15.0199   C.2       1 RES1   0.0000
    24 N24     -1.5984  -7.2184 -13.0119   N.pl3     1 RES1   0.0000
    25 C25     -1.0832 -11.6911 -13.3372   C.3       1 RES1   0.0000
    26 H26     -0.6331 -12.2196 -12.4981   H         1 RES1   0.0000
    27 H27     -0.6343 -12.0371 -14.2671   H         1 RES1   0.0000
    28 C28     -3.2435 -11.2227 -14.4623   C.3       1 RES1   0.0000
    29 H29     -2.8590 -11.5671 -15.4212   H         1 RES1   0.0000
    30 H30     -4.3132 -11.4194 -14.4083   H         1 RES1   0.0000
    31 C31     -3.0042  -9.7256 -14.3371   C.3       1 RES1   0.0000
    32 H32     -3.4589  -9.2199 -15.1876   H         1 RES1   0.0000
    33 H33     -3.4608  -9.3678 -13.4154   H         1 RES1   0.0000
    34 C34     -0.8406 -10.1997 -13.1835   C.3       1 RES1   0.0000
    35 H35     -1.2472  -9.8704 -12.2284   H         1 RES1   0.0000
    36 H36      0.2315 -10.0101 -13.2063   H         1 RES1   0.0000
    37 N37     -2.5535 -11.9614 -13.3641   N.4       1 RES1   1.0000
    38 H38     -2.9545 -11.6761 -12.4764   H         1 RES1   0.0000
    39 H39     -2.7004 -12.9568 -13.4974   H         1 RES1   0.0000
    40 N40     -0.4619  -4.7249 -11.2286   N.ar      1 RES1   0.0000
    41 C41     -2.7124  -3.2288 -11.1379   C.ar      1 RES1   0.0000
    42 H42     -3.6155  -2.6280 -11.1111   H         1 RES1   0.0000
    43 N43      0.2500  -3.6161  -9.3518   N.pl3     1 RES1   0.0000
    44 H44      0.1058  -2.8794  -8.6613   H         1 RES1   0.0000
    45 C45     -2.5846  -4.1682 -12.1411   C.ar      1 RES1   0.0000
    46 H46     -3.3622  -4.3161 -12.8831   H         1 RES1   0.0000
    47 C47     -0.6941  -3.7933 -10.2898   C.ar      1 RES1   0.0000
    48 N48     -1.7846  -3.0185 -10.1952   N.ar      1 RES1   0.0000
    49 C49      1.5015  -4.3712  -9.2957   C.3       1 RES1   0.0000
    50 H50      1.8138  -4.6129 -10.3235   H         1 RES1   0.0000
    51 C51      1.3618  -5.6644  -8.5169   C.ar      1 RES1   0.0000
    52 C52      2.5575  -3.4697  -8.6669   C.3       1 RES1   0.0000
    53 H53      3.5218  -3.9722  -8.6297   H         1 RES1   0.0000
    54 H54      2.6753  -2.5525  -9.2402   H         1 RES1   0.0000
    55 H55      2.2770  -3.2002  -7.6508   H         1 RES1   0.0000
    56 C56      1.1010  -8.0327  -7.0734   C.ar      1 RES1   0.0000
    57 H57      0.9987  -8.9551  -6.5115   H         1 RES1   0.0000
    58 C58      0.9813  -5.6447  -7.1828   C.ar      1 RES1   0.0000
    59 H59      0.7835  -4.6954  -6.6960   H         1 RES1   0.0000
    60 C60      1.6121  -6.8916  -9.1154   C.ar      1 RES1   0.0000
    61 H61      1.9128  -6.9320 -10.1571   H         1 RES1   0.0000
    62 C62      1.4817  -8.0680  -8.3968   C.ar      1 RES1   0.0000
    63 H63      1.6800  -9.0199  -8.8779   H         1 RES1   0.0000
    64 C64      0.8506  -6.8219  -6.4660   C.ar      1 RES1   0.0000
    65 H65      0.5505  -6.7904  -5.4239   H         1 RES1   0.0000
@<TRIPOS>BOND
     1     1     5   ar
     2     1     6   ar
     3     1     2    1
     4     3     8   ar
     5     3     9   ar
     6     3     4    1
     7     5     9   ar
     8     5    11    1
     9     6     8   ar
    10     6     7    1
    11     8    12    1
    12     9    10    1
    13    11    20    2
    14    11    23    1
    15    13    14    1
    16    13    23   am
    17    13    24    1
    18    14    31    1
    19    14    34    1
    20    14    15    1
    21    16    24    1
    22    16    17    1
    23    16    18    1
    24    16    19    1
    25    20    21    1
    26    20    24    1
    27    21    40   ar
    28    21    45   ar
    29    22    23    2
    30    25    34    1
    31    25    37    1
    32    25    26    1
    33    25    27    1
    34    28    31    1
    35    28    37    1
    36    28    29    1
    37    28    30    1
    38    31    32    1
    39    31    33    1
    40    34    35    1
    41    34    36    1
    42    37    38    1
    43    37    39    1
    44    40    47   ar
    45    41    45   ar
    46    41    48   ar
    47    41    42    1
    48    43    47    1
    49    43    49    1
    50    43    44    1
    51    45    46    1
    52    47    48   ar
    53    49    51    1
    54    49    52    1
    55    49    50    1
    56    51    58   ar
    57    51    60   ar
    58    52    53    1
    59    52    54    1
    60    52    55    1
    61    56    62   ar
    62    56    64   ar
    63    56    57    1
    64    58    64   ar
    65    58    59    1
    66    60    62   ar
    67    60    61    1
    68    62    63    1
    69    64    65    1
@<TRIPOS>SUBSTRUCTURE
     1 RES1        1 GROUP             0 ****  ****    0  
@<TRIPOS>MOLECULE
LIGAND_00072
    65    69     1     0     0
SMALL
USER_CHARGES
****
Generated from the CSD

@<TRIPOS>ATOM
     1 C1      -0.3701  -3.8964 -15.9918   C.ar      1 RES1   0.0000
     2 H2      -1.1642  -4.3349 -16.5863   H         1 RES1   0.0000
     3 C3       1.6297  -2.7392 -14.4773   C.ar      1 RES1   0.0000
     4 H4       2.4102  -2.2746 -13.8839   H         1 RES1   0.0000
     5 C5       0.0599  -4.5461 -14.8386   C.ar      1 RES1   0.0000
     6 C6       0.1911  -2.6974 -16.3942   C.ar      1 RES1   0.0000
     7 H7      -0.1441  -2.2032 -17.2999   H         1 RES1   0.0000
     8 C8       1.1764  -2.1489 -15.6225   C.ar      1 RES1   0.0000
     9 C9       1.0700  -3.9440 -14.0935   C.ar      1 RES1   0.0000
    10 H10      1.4331  -4.4269 -13.1935   H         1 RES1   0.0000
    11 C11     -0.5410  -5.8434 -14.3880   C.2       1 RES1   0.0000
    12 F12      1.7291  -0.9670 -16.0092   F         1 RES1   0.0000
    13 N13     -1.2406  -7.9410 -14.1570   N.am      1 RES1   0.0000
    14 C14     -1.5106  -9.4109 -14.3092   C.3       1 RES1   0.0000
    15 H15     -1.0788  -9.7377 -15.2540   H         1 RES1   0.0000
    16 C16     -2.0882  -7.8386 -11.7803   C.3       1 RES1   0.0000
    17 H17     -2.6361  -7.1177 -11.1770   H         1 RES1   0.0000
    18 H18     -2.7550  -8.6688 -12.0043   H         1 RES1   0.0000
    19 H19     -1.2602  -8.2192 -11.1860   H         1 RES1   0.0000
    20 C20     -1.1594  -5.9688 -13.1688   C.2       1 RES1   0.0000
    21 C21     -1.4160  -4.9157 -12.1531   C.ar      1 RES1   0.0000
    22 O22     -0.1808  -7.5094 -16.1020   O.2       1 RES1   0.0000
    23 C23     -0.6007  -7.1206 -15.0199   C.2       1 RES1   0.0000
    24 N24     -1.5984  -7.2184 -13.0119   N.pl3     1 RES1   0.0000
    25 C25     -1.0832 -11.6911 -13.3372   C.3       1 RES1   0.0000
    26 H26     -0.6331 -12.2196 -12.4981   H         1 RES1   0.0000
    27 H27     -0.6343 -12.0371 -14.2671   H         1 RES1   0.0000
    28 C28     -3.2435 -11.2227 -14.4623   C.3       1 RES1   0.0000
    29 H29     -2.8590 -11.5671 -15.4212   H         1 RES1   0.0000
    30 H30     -4.3132 -11.4194 -14.4083   H         1 RES1   0.0000
    31 C31     -3.0042  -9.7256 -14.3371   C.3       1 RES1   0.0000
    32 H32     -3.4589  -9.2199 -15.1876   H         1 RES1   0.0000
    33 H33     -3.4608  -9.3678 -13.4154   H         1 RES1   0.0000
    34 C34     -0.8406 -10.1997 -13.1835   C.3       1 RES1   0.0000
    35 H35     -1.2472  -9.8704 -12.2284   H         1 RES1   0.0000
    36 H36      0.2315 -10.0101 -13.2063   H         1 RES1   0.0000
    37 N37     -2.5535 -11.9614 -13.3641   N.4       1 RES1   1.0000
    38 H38     -2.9545 -11.6761 -12.4764   H         1 RES1   0.0000
    39 H39     -2.7004 -12.9568 -13.4974   H         1 RES1   0.0000
    40 N40     -2.5784  -4.2520 -12.2536   N.ar      1 RES1   0.0000
    41 C41     -0.8501  -3.6050 -10.2773   C.ar      1 RES1   0.0000
    42 H42     -0.1544  -3.3547  -9.4832   H         1 RES1   0.0000
    43 N43     -3.9628  -2.6010 -11.4687   N.pl3     1 RES1   0.0000
    44 H44     -4.1708  -1.8924 -10.7652   H         1 RES1   0.0000
    45 C45     -0.5032  -4.6139 -11.1531   C.ar      1 RES1   0.0000
    46 H46      0.4396  -5.1435 -11.0647   H         1 RES1   0.0000
    47 C47     -2.8100  -3.2801 -11.3565   C.ar      1 RES1   0.0000
    48 N48     -1.9968  -2.9172 -10.3539   N.ar      1 RES1   0.0000
    49 C49     -4.9679  -2.8571 -12.5000   C.3       1 RES1   0.0000
    50 H50     -4.9595  -3.9314 -12.7414   H         1 RES1   0.0000
    51 C51     -4.7038  -2.0747 -13.7715   C.ar      1 RES1   0.0000
    52 C52     -6.3303  -2.5015 -11.9164   C.3       1 RES1   0.0000
    53 H53     -7.1227  -2.7043 -12.6338   H         1 RES1   0.0000
    54 H54     -6.5303  -3.0813 -11.0177   H         1 RES1   0.0000
    55 H55     -6.3726  -1.4462 -11.6548   H         1 RES1   0.0000
    56 C56     -4.2194  -0.6237 -16.0996   C.ar      1 RES1   0.0000
    57 H57     -4.0300  -0.0587 -17.0063   H         1 RES1   0.0000
    58 C58     -4.6659  -0.6879 -13.7490   C.ar      1 RES1   0.0000
    59 H59     -4.8275  -0.1626 -12.8135   H         1 RES1   0.0000
    60 C60     -4.4971  -2.7227 -14.9815   C.ar      1 RES1   0.0000
    61 H61     -4.5238  -3.8065 -15.0241   H         1 RES1   0.0000
    62 C62     -4.2561  -2.0002 -16.1379   C.ar      1 RES1   0.0000
    63 H63     -4.0956  -2.5202 -17.0764   H         1 RES1   0.0000
    64 C64     -4.4241   0.0329 -14.9061   C.ar      1 RES1   0.0000
    65 H65     -4.3958   1.1169 -14.8723   H         1 RES1   0.0000
@<TRIPOS>BOND
     1     1     5   ar
     2     1     6   ar
     3     1     2    1
     4     3     8   ar
     5     3     9   ar
     6     3     4    1
     7     5     9   ar
     8     5    11    1
     9     6     8   ar
    10     6     7    1
    11     8    12    1
    12     9    10    1
    13    11    20    2
    14    11    23    1
    15    13    14    1
    16    13    23   am
    17    13    24    1
    18    14    31    1
    19    14    34    1
    20    14    15    1
    21    16    24    1
    22    16    17    1
    23    16    18    1
    24    16    19    1
    25    20    21    1
    26    20    24    1
    27    21    40   ar
    28    21    45   ar
    29    22    23    2
    30    25    34    1
    31    25    37    1
    32    25    26    1
    33    25    27    1
    34    28    31    1
    35    28    37    1
    36    28    29    1
    37    28    30    1
    38    31    32    1
    39    31    33    1
    40    34    35    1
    41    34    36    1
    42    37    38    1
    43    37    39    1
    44    40    47   ar
    45    41    45   ar
    46    41    48   ar
    47    41    42    1
    48    43    47    1
    49    43    49    1
    50    43    44    1
    51    45    46    1
    52    47    48   ar
    53    49    51    1
    54    49    52    1
    55    49    50    1
    56    51    58   ar
    57    51    60   ar
    58    52    53    1
    59    52    54    1
    60    52    55    1
    61    56    62   ar
    62    56    64   ar
    63    56    57    1
    64    58    64   ar
    65    58    59    1
    66    60    62   ar
    67    60    61    1
    68    62    63    1
    69    64    65    1
@<TRIPOS>SUBSTRUCTURE
     1 RES1        1 GROUP             0 ****  ****    0  
@<TRIPOS>MOLECULE
LIGAND_00073
    65    69     1     0     0
SMALL
USER_CHARGES
****
Generated from the CSD

@<TRIPOS>ATOM
     1 C1      -0.4284  -3.4235 -14.9915   C.ar      1 RES1   0.0000
     2 H2      -1.5103  -3.4070 -14.9163   H         1 RES1   0.0000
     3 C3       2.3293  -3.4275 -15.1559   C.ar      1 RES1   0.0000
     4 H4       3.4126  -3.4191 -15.2152   H         1 RES1   0.0000
     5 C5       0.2581  -4.6049 -14.7275   C.ar      1 RES1   0.0000
     6 C6       0.2415  -2.2649 -15.3431   C.ar      1 RES1   0.0000
     7 H7      -0.3030  -1.3512 -15.5565   H         1 RES1   0.0000
     8 C8       1.6057  -2.2982 -15.4134   C.ar      1 RES1   0.0000
     9 C9       1.6470  -4.5821 -14.8188   C.ar      1 RES1   0.0000
    10 H10      2.2121  -5.4869 -14.6263   H         1 RES1   0.0000
    11 C11     -0.4535  -5.8667 -14.3418   C.2       1 RES1   0.0000
    12 F12      2.2715  -1.1611 -15.7533   F         1 RES1   0.0000
    13 N13     -1.2998  -7.9174 -14.1965   N.am      1 RES1   0.0000
    14 C14     -1.6523  -9.3643 -14.3933   C.3       1 RES1   0.0000
    15 H15     -1.1796  -9.7051 -15.3133   H         1 RES1   0.0000
    16 C16     -2.2973  -7.7937 -11.8797   C.3       1 RES1   0.0000
    17 H17     -2.8379  -7.0474 -11.3013   H         1 RES1   0.0000
    18 H18     -2.9986  -8.5760 -12.1627   H         1 RES1   0.0000
    19 H19     -1.5372  -8.2351 -11.2386   H         1 RES1   0.0000
    20 C20     -1.1594  -5.9688 -13.1688   C.2       1 RES1   0.0000
    21 C21     -1.4160  -4.9157 -12.1531   C.ar      1 RES1   0.0000
    22 O22     -0.0859  -7.5281 -16.0586   O.2       1 RES1   0.0000
    23 C23     -0.5520  -7.1282 -14.9997   C.2       1 RES1   0.0000
    24 N24     -1.6870  -7.1893 -13.0644   N.pl3     1 RES1   0.0000
    25 C25     -1.4379 -11.6810 -13.4374   C.3       1 RES1   0.0000
    26 H26     -1.0800 -12.2495 -12.5802   H         1 RES1   0.0000
    27 H27     -0.9505 -12.0423 -14.3417   H         1 RES1   0.0000
    28 C28     -3.4832 -11.0573 -14.6943   C.3       1 RES1   0.0000
    29 H29     -3.0579 -11.4123 -15.6318   H         1 RES1   0.0000
    30 H30     -4.5645 -11.1847 -14.7149   H         1 RES1   0.0000
    31 C31     -3.1577  -9.5808 -14.5258   C.3       1 RES1   0.0000
    32 H32     -3.5208  -9.0346 -15.3951   H         1 RES1   0.0000
    33 H33     -3.6514  -9.2072 -13.6300   H         1 RES1   0.0000
    34 C34     -1.1114 -10.2109 -13.2404   C.3       1 RES1   0.0000
    35 H35     -1.5594  -9.8694 -12.3085   H         1 RES1   0.0000
    36 H36     -0.0302 -10.0911 -13.1887   H         1 RES1   0.0000
    37 N37     -2.9174 -11.8547 -13.5666   N.4       1 RES1   1.0000
    38 H38     -3.3581 -11.5566 -12.7023   H         1 RES1   0.0000
    39 H39     -3.1182 -12.8365 -13.7277   H         1 RES1   0.0000
    40 N40     -0.8662  -5.0993 -10.9425   N.ar      1 RES1   0.0000
    41 C41     -2.3708  -2.8985 -11.3940   C.ar      1 RES1   0.0000
    42 H42     -2.9709  -2.0147 -11.5841   H         1 RES1   0.0000
    43 N43     -0.5809  -4.3597  -8.7908   N.pl3     1 RES1   0.0000
    44 H44     -0.0422  -5.2114  -8.6337   H         1 RES1   0.0000
    45 C45     -2.1938  -3.7996 -12.4246   C.ar      1 RES1   0.0000
    46 H46     -2.6438  -3.6432 -13.3994   H         1 RES1   0.0000
    47 C47     -1.1127  -4.1667 -10.0084   C.ar      1 RES1   0.0000
    48 N48     -1.8442  -3.0549 -10.1726   N.ar      1 RES1   0.0000
    49 C49     -0.7784  -3.4562  -7.6575   C.3       1 RES1   0.0000
    50 H50     -0.4612  -2.4443  -7.9540   H         1 RES1   0.0000
    51 C51      0.0203  -3.8746  -6.4387   C.ar      1 RES1   0.0000
    52 C52     -2.2700  -3.4253  -7.3453   C.3       1 RES1   0.0000
    53 H53     -2.4402  -3.1920  -6.2964   H         1 RES1   0.0000
    54 H54     -2.7762  -2.6728  -7.9462   H         1 RES1   0.0000
    55 H55     -2.7266  -4.3902  -7.5558   H         1 RES1   0.0000
    56 C56      1.4862  -4.6584  -4.2033   C.ar      1 RES1   0.0000
    57 H57      2.0577  -4.9634  -3.3330   H         1 RES1   0.0000
    58 C58      0.2530  -5.2171  -6.1771   C.ar      1 RES1   0.0000
    59 H59     -0.1412  -5.9706  -6.8510   H         1 RES1   0.0000
    60 C60      0.5328  -2.9306  -5.5594   C.ar      1 RES1   0.0000
    61 H61      0.3622  -1.8749  -5.7424   H         1 RES1   0.0000
    62 C62      1.2615  -3.3217  -4.4489   C.ar      1 RES1   0.0000
    63 H63      1.6565  -2.5727  -3.7706   H         1 RES1   0.0000
    64 C64      0.9825  -5.6063  -5.0666   C.ar      1 RES1   0.0000
    65 H65      1.1577  -6.6599  -4.8763   H         1 RES1   0.0000
@<TRIPOS>BOND
     1     1     5   ar
     2     1     6   ar
     3     1     2    1
     4     3     8   ar
     5     3     9   ar
     6     3     4    1
     7     5     9   ar
     8     5    11    1
     9     6     8   ar
    10     6     7    1
    11     8    12    1
    12     9    10    1
    13    11    20    2
    14    11    23    1
    15    13    14    1
    16    13    23   am
    17    13    24    1
    18    14    31    1
    19    14    34    1
    20    14    15    1
    21    16    24    1
    22    16    17    1
    23    16    18    1
    24    16    19    1
    25    20    21    1
    26    20    24    1
    27    21    40   ar
    28    21    45   ar
    29    22    23    2
    30    25    34    1
    31    25    37    1
    32    25    26    1
    33    25    27    1
    34    28    31    1
    35    28    37    1
    36    28    29    1
    37    28    30    1
    38    31    32    1
    39    31    33    1
    40    34    35    1
    41    34    36    1
    42    37    38    1
    43    37    39    1
    44    40    47   ar
    45    41    45   ar
    46    41    48   ar
    47    41    42    1
    48    43    47    1
    49    43    49    1
    50    43    44    1
    51    45    46    1
    52    47    48   ar
    53    49    51    1
    54    49    52    1
    55    49    50    1
    56    51    58   ar
    57    51    60   ar
    58    52    53    1
    59    52    54    1
    60    52    55    1
    61    56    62   ar
    62    56    64   ar
    63    56    57    1
    64    58    64   ar
    65    58    59    1
    66    60    62   ar
    67    60    61    1
    68    62    63    1
    69    64    65    1
@<TRIPOS>SUBSTRUCTURE
     1 RES1        1 GROUP             0 ****  ****    0  
@<TRIPOS>MOLECULE
LIGAND_00074
    65    69     1     0     0
SMALL
USER_CHARGES
****
Generated from the CSD

@<TRIPOS>ATOM
     1 C1      -0.7657  -3.8366 -15.9789   C.ar      1 RES1   0.0000
     2 H2      -1.6380  -4.2801 -16.4469   H         1 RES1   0.0000
     3 C3       1.4323  -2.6673 -14.7818   C.ar      1 RES1   0.0000
     4 H4       2.2904  -2.1980 -14.3120   H         1 RES1   0.0000
     5 C5      -0.1371  -4.5041 -14.9319   C.ar      1 RES1   0.0000
     6 C6      -0.3044  -2.6138 -16.4331   C.ar      1 RES1   0.0000
     7 H7      -0.7953  -2.1055 -17.2563   H         1 RES1   0.0000
     8 C8       0.7834  -2.0600 -15.8188   C.ar      1 RES1   0.0000
     9 C9       0.9694  -3.8954 -14.3464   C.ar      1 RES1   0.0000
    10 H10      1.4867  -4.3915 -13.5331   H         1 RES1   0.0000
    11 C11     -0.6276  -5.8274 -14.4265   C.2       1 RES1   0.0000
    12 F12      1.2393  -0.8549 -16.2567   F         1 RES1   0.0000
    13 N13     -1.1811  -7.9592 -14.1232   N.am      1 RES1   0.0000
    14 C14     -1.3691  -9.4451 -14.2380   C.3       1 RES1   0.0000
    15 H15     -0.9783  -9.7615 -15.2040   H         1 RES1   0.0000
    16 C16     -1.8825  -7.8671 -11.6989   C.3       1 RES1   0.0000
    17 H17     -2.4352  -7.1704 -11.0719   H         1 RES1   0.0000
    18 H18     -2.5092  -8.7401 -11.8687   H         1 RES1   0.0000
    19 H19     -0.9969  -8.1859 -11.1532   H         1 RES1   0.0000
    20 C20     -1.1594  -5.9688 -13.1688   C.2       1 RES1   0.0000
    21 C21     -1.4160  -4.9157 -12.1531   C.ar      1 RES1   0.0000
    22 O22     -0.2740  -7.4980 -16.1374   O.2       1 RES1   0.0000
    23 C23     -0.6483  -7.1166 -15.0361   C.2       1 RES1   0.0000
    24 N24     -1.5100  -7.2398 -12.9674   N.pl3     1 RES1   0.0000
    25 C25     -0.7420 -11.6781 -13.2647   C.3       1 RES1   0.0000
    26 H26     -0.2084 -12.1638 -12.4490   H         1 RES1   0.0000
    27 H27     -0.3321 -12.0124 -14.2165   H         1 RES1   0.0000
    28 C28     -2.9935 -11.3608 -14.2558   C.3       1 RES1   0.0000
    29 H29     -2.6497 -11.6979 -15.2325   H         1 RES1   0.0000
    30 H30     -4.0436 -11.6209 -14.1309   H         1 RES1   0.0000
    31 C31     -2.8393  -9.8501 -14.1662   C.3       1 RES1   0.0000
    32 H32     -3.3769  -9.3876 -14.9927   H         1 RES1   0.0000
    33 H33     -3.2582  -9.5047 -13.2222   H         1 RES1   0.0000
    34 C34     -0.5825 -10.1723 -13.1468   C.3       1 RES1   0.0000
    35 H35     -0.9476  -9.8517 -12.1723   H         1 RES1   0.0000
    36 H36      0.4724  -9.9186 -13.2406   H         1 RES1   0.0000
    37 N37     -2.1918 -12.0373 -13.1940   N.4       1 RES1   1.0000
    38 H38     -2.5528 -11.7614 -12.2864   H         1 RES1   0.0000
    39 H39     -2.2852 -13.0419 -13.3043   H         1 RES1   0.0000
    40 N40     -2.6992  -4.6898 -11.8302   N.ar      1 RES1   0.0000
    41 C41     -0.7580  -3.2243 -10.6488   C.ar      1 RES1   0.0000
    42 H42      0.0265  -2.6440 -10.1743   H         1 RES1   0.0000
    43 N43     -4.2293  -3.4806 -10.6241   N.pl3     1 RES1   0.0000
    44 H44     -4.4267  -2.7672  -9.9224   H         1 RES1   0.0000
    45 C45     -0.3913  -4.1856 -11.5689   C.ar      1 RES1   0.0000
    46 H46      0.6486  -4.3597 -11.8246   H         1 RES1   0.0000
    47 C47     -2.9451  -3.7222 -10.9322   C.ar      1 RES1   0.0000
    48 N48     -2.0280  -2.9671 -10.3100   N.ar      1 RES1   0.0000
    49 C49     -5.3599  -4.2198 -11.1851   C.3       1 RES1   0.0000
    50 H50     -5.3045  -4.1684 -12.2836   H         1 RES1   0.0000
    51 C51     -6.6959  -3.6561 -10.7424   C.ar      1 RES1   0.0000
    52 C52     -5.2169  -5.6764 -10.7595   C.3       1 RES1   0.0000
    53 H53     -6.1847  -6.1736 -10.7527   H         1 RES1   0.0000
    54 H54     -4.5632  -6.2169 -11.4409   H         1 RES1   0.0000
    55 H55     -4.7944  -5.7446  -9.7592   H         1 RES1   0.0000
    56 C56     -9.1468  -2.6230  -9.9141   C.ar      1 RES1   0.0000
    57 H57    -10.1011  -2.2200  -9.5916   H         1 RES1   0.0000
    58 C58     -7.0275  -3.6075  -9.3961   C.ar      1 RES1   0.0000
    59 H59     -6.3240  -3.9768  -8.6572   H         1 RES1   0.0000
    60 C60     -7.6147  -3.1803 -11.6678   C.ar      1 RES1   0.0000
    61 H61     -7.3783  -3.2096 -12.7262   H         1 RES1   0.0000
    62 C62     -8.8324  -2.6667 -11.2546   C.ar      1 RES1   0.0000
    63 H63     -9.5404  -2.2977 -11.9891   H         1 RES1   0.0000
    64 C64     -8.2453  -3.0930  -8.9847   C.ar      1 RES1   0.0000
    65 H65     -8.4896  -3.0600  -7.9281   H         1 RES1   0.0000
@<TRIPOS>BOND
     1     1     5   ar
     2     1     6   ar
     3     1     2    1
     4     3     8   ar
     5     3     9   ar
     6     3     4    1
     7     5     9   ar
     8     5    11    1
     9     6     8   ar
    10     6     7    1
    11     8    12    1
    12     9    10    1
    13    11    20    2
    14    11    23    1
    15    13    14    1
    16    13    23   am
    17    13    24    1
    18    14    31    1
    19    14    34    1
    20    14    15    1
    21    16    24    1
    22    16    17    1
    23    16    18    1
    24    16    19    1
    25    20    21    1
    26    20    24    1
    27    21    40   ar
    28    21    45   ar
    29    22    23    2
    30    25    34    1
    31    25    37    1
    32    25    26    1
    33    25    27    1
    34    28    31    1
    35    28    37    1
    36    28    29    1
    37    28    30    1
    38    31    32    1
    39    31    33    1
    40    34    35    1
    41    34    36    1
    42    37    38    1
    43    37    39    1
    44    40    47   ar
    45    41    45   ar
    46    41    48   ar
    47    41    42    1
    48    43    47    1
    49    43    49    1
    50    43    44    1
    51    45    46    1
    52    47    48   ar
    53    49    51    1
    54    49    52    1
    55    49    50    1
    56    51    58   ar
    57    51    60   ar
    58    52    53    1
    59    52    54    1
    60    52    55    1
    61    56    62   ar
    62    56    64   ar
    63    56    57    1
    64    58    64   ar
    65    58    59    1
    66    60    62   ar
    67    60    61    1
    68    62    63    1
    69    64    65    1
@<TRIPOS>SUBSTRUCTURE
     1 RES1        1 GROUP             0 ****  ****    0  
@<TRIPOS>MOLECULE
LIGAND_00075
    65    69     1     0     0
SMALL
USER_CHARGES
****
Generated from the CSD

@<TRIPOS>ATOM
     1 C1       0.3359  -4.0444 -15.7323   C.ar      1 RES1   0.0000
     2 H2      -0.3718  -4.4422 -16.4516   H         1 RES1   0.0000
     3 C3       2.1186  -2.9892 -13.9046   C.ar      1 RES1   0.0000
     4 H4       2.8149  -2.5644 -13.1891   H         1 RES1   0.0000
     5 C5       0.5126  -4.6946 -14.5146   C.ar      1 RES1   0.0000
     6 C6       1.0410  -2.8953 -16.0437   C.ar      1 RES1   0.0000
     7 H7       0.9036  -2.4008 -16.9995   H         1 RES1   0.0000
     8 C8       1.9135  -2.3965 -15.1178   C.ar      1 RES1   0.0000
     9 C9       1.4177  -4.1446 -13.6113   C.ar      1 RES1   0.0000
    10 H10      1.5844  -4.6299 -12.6564   H         1 RES1   0.0000
    11 C11     -0.2467  -5.9380 -14.1617   C.2       1 RES1   0.0000
    12 F12      2.6063  -1.2636 -15.4151   F         1 RES1   0.0000
    13 N13     -1.2406  -7.9410 -14.1570   N.am      1 RES1   0.0000
    14 C14     -1.5106  -9.4109 -14.3092   C.3       1 RES1   0.0000
    15 H15     -0.9490  -9.7701 -15.1703   H         1 RES1   0.0000
    16 C16     -2.9634  -7.4981 -12.4712   C.3       1 RES1   0.0000
    17 H17     -3.2161  -6.7696 -11.7036   H         1 RES1   0.0000
    18 H18     -3.7034  -7.4237 -13.2653   H         1 RES1   0.0000
    19 H19     -3.0343  -8.4914 -12.0331   H         1 RES1   0.0000
    20 C20     -1.0688  -6.0097 -13.0848   C.2       1 RES1   0.0000
    21 C21     -1.4087  -4.9383 -12.1137   C.ar      1 RES1   0.0000
    22 O22      0.2750  -7.5989 -15.8623   O.2       1 RES1   0.0000
    23 C23     -0.3156  -7.1911 -14.8707   C.2       1 RES1   0.0000
    24 N24     -1.6169  -7.2574 -12.9912   N.3       1 RES1   0.0000
    25 C25     -1.2721 -11.6680 -13.2251   C.3       1 RES1   0.0000
    26 H26     -0.9608 -12.1784 -12.3148   H         1 RES1   0.0000
    27 H27     -0.6961 -12.0463 -14.0684   H         1 RES1   0.0000
    28 C28     -3.2328 -11.2030 -14.6712   C.3       1 RES1   0.0000
    29 H29     -2.7163 -11.5797 -15.5528   H         1 RES1   0.0000
    30 H30     -4.3020 -11.3838 -14.7719   H         1 RES1   0.0000
    31 C31     -2.9887  -9.7063 -14.5509   C.3       1 RES1   0.0000
    32 H32     -3.3032  -9.2190 -15.4726   H         1 RES1   0.0000
    33 H33     -3.5708  -9.3164 -13.7172   H         1 RES1   0.0000
    34 C34     -1.0290 -10.1762 -13.0760   C.3       1 RES1   0.0000
    35 H35     -1.5671  -9.8145 -12.2011   H         1 RES1   0.0000
    36 H36      0.0378 -10.0017 -12.9440   H         1 RES1   0.0000
    37 N37     -2.7266 -11.9193 -13.4636   N.4       1 RES1   1.0000
    38 H38     -3.2498 -11.6036 -12.6532   H         1 RES1   0.0000
    39 H39     -2.8693 -12.9161 -13.5911   H         1 RES1   0.0000
    40 N40     -2.4741  -4.1759 -12.4060   N.ar      1 RES1   0.0000
    41 C41     -1.0710  -3.6820 -10.1479   C.ar      1 RES1   0.0000
    42 H42     -0.5068  -3.4933  -9.2404   H         1 RES1   0.0000
    43 N43     -3.8280  -2.4106 -11.8503   N.pl3     1 RES1   0.0000
    44 H44     -4.3114  -2.5816 -12.7321   H         1 RES1   0.0000
    45 C45     -0.6634  -4.7173 -10.9648   C.ar      1 RES1   0.0000
    46 H46      0.2002  -5.3270 -10.7208   H         1 RES1   0.0000
    47 C47     -2.7755  -3.1875 -11.5485   C.ar      1 RES1   0.0000
    48 N48     -2.1231  -2.8969 -10.4135   N.ar      1 RES1   0.0000
    49 C49     -4.2862  -1.2938 -11.0241   C.3       1 RES1   0.0000
    50 H50     -3.4126  -0.8357 -10.5350   H         1 RES1   0.0000
    51 C51     -5.2652  -1.7314  -9.9524   C.ar      1 RES1   0.0000
    52 C52     -4.9199  -0.2628 -11.9507   C.3       1 RES1   0.0000
    53 H53     -5.2510   0.6087 -11.3897   H         1 RES1   0.0000
    54 H54     -4.2092   0.0696 -12.7045   H         1 RES1   0.0000
    55 H55     -5.7830  -0.6844 -12.4615   H         1 RES1   0.0000
    56 C56     -7.0690  -2.5469  -7.9924   C.ar      1 RES1   0.0000
    57 H57     -7.7709  -2.8649  -7.2287   H         1 RES1   0.0000
    58 C58     -6.0989  -2.8202 -10.1634   C.ar      1 RES1   0.0000
    59 H59     -6.0478  -3.3600 -11.1032   H         1 RES1   0.0000
    60 C60     -5.3523  -1.0559  -8.7429   C.ar      1 RES1   0.0000
    61 H61     -4.7118  -0.2004  -8.5558   H         1 RES1   0.0000
    62 C62     -6.2491  -1.4627  -7.7694   C.ar      1 RES1   0.0000
    63 H63     -6.3056  -0.9255  -6.8285   H         1 RES1   0.0000
    64 C64     -6.9944  -3.2260  -9.1886   C.ar      1 RES1   0.0000
    65 H65     -7.6386  -4.0804  -9.3675   H         1 RES1   0.0000
@<TRIPOS>BOND
     1     1     5   ar
     2     1     6   ar
     3     1     2    1
     4     3     8   ar
     5     3     9   ar
     6     3     4    1
     7     5     9   ar
     8     5    11    1
     9     6     8   ar
    10     6     7    1
    11     8    12    1
    12     9    10    1
    13    11    20    2
    14    11    23    1
    15    13    14    1
    16    13    23   am
    17    13    24    1
    18    14    31    1
    19    14    34    1
    20    14    15    1
    21    16    24    1
    22    16    17    1
    23    16    18    1
    24    16    19    1
    25    20    21    1
    26    20    24    1
    27    21    40   ar
    28    21    45   ar
    29    22    23    2
    30    25    34    1
    31    25    37    1
    32    25    26    1
    33    25    27    1
    34    28    31    1
    35    28    37    1
    36    28    29    1
    37    28    30    1
    38    31    32    1
    39    31    33    1
    40    34    35    1
    41    34    36    1
    42    37    38    1
    43    37    39    1
    44    40    47   ar
    45    41    45   ar
    46    41    48   ar
    47    41    42    1
    48    43    47    1
    49    43    49    1
    50    43    44    1
    51    45    46    1
    52    47    48   ar
    53    49    51    1
    54    49    52    1
    55    49    50    1
    56    51    58   ar
    57    51    60   ar
    58    52    53    1
    59    52    54    1
    60    52    55    1
    61    56    62   ar
    62    56    64   ar
    63    56    57    1
    64    58    64   ar
    65    58    59    1
    66    60    62   ar
    67    60    61    1
    68    62    63    1
    69    64    65    1
@<TRIPOS>SUBSTRUCTURE
     1 RES1        1 GROUP             0 ****  ****    0  
@<TRIPOS>MOLECULE
LIGAND_00076
    65    69     1     0     0
SMALL
USER_CHARGES
****
Generated from the CSD

@<TRIPOS>ATOM
     1 C1      -0.1313  -3.4938 -14.7980   C.ar      1 RES1   0.0000
     2 H2      -1.2144  -3.4482 -14.7628   H         1 RES1   0.0000
     3 C3       2.6295  -3.5726 -14.8604   C.ar      1 RES1   0.0000
     4 H4       3.7141  -3.5935 -14.8797   H         1 RES1   0.0000
     5 C5       0.5126  -4.6946 -14.5146   C.ar      1 RES1   0.0000
     6 C6       0.5824  -2.3527 -15.1190   C.ar      1 RES1   0.0000
     7 H7       0.0712  -1.4236 -15.3478   H         1 RES1   0.0000
     8 C8       1.9469  -2.4229 -15.1390   C.ar      1 RES1   0.0000
     9 C9       1.9040  -4.7094 -14.5545   C.ar      1 RES1   0.0000
    10 H10      2.4368  -5.6301 -14.3457   H         1 RES1   0.0000
    11 C11     -0.2467  -5.9380 -14.1617   C.2       1 RES1   0.0000
    12 F12      2.6554  -1.3031 -15.4485   F         1 RES1   0.0000
    13 N13     -1.2406  -7.9410 -14.1570   N.am      1 RES1   0.0000
    14 C14     -1.5106  -9.4109 -14.3092   C.3       1 RES1   0.0000
    15 H15     -0.9490  -9.7701 -15.1703   H         1 RES1   0.0000
    16 C16     -2.9634  -7.4981 -12.4712   C.3       1 RES1   0.0000
    17 H17     -3.2161  -6.7696 -11.7036   H         1 RES1   0.0000
    18 H18     -3.7034  -7.4236 -13.2653   H         1 RES1   0.0000
    19 H19     -3.0343  -8.4914 -12.0332   H         1 RES1   0.0000
    20 C20     -1.0688  -6.0097 -13.0848   C.2       1 RES1   0.0000
    21 C21     -1.4087  -4.9383 -12.1137   C.ar      1 RES1   0.0000
    22 O22      0.2750  -7.5989 -15.8623   O.2       1 RES1   0.0000
    23 C23     -0.3156  -7.1911 -14.8707   C.2       1 RES1   0.0000
    24 N24     -1.6169  -7.2574 -12.9912   N.3       1 RES1   0.0000
    25 C25     -1.2721 -11.6680 -13.2251   C.3       1 RES1   0.0000
    26 H26     -0.9608 -12.1784 -12.3148   H         1 RES1   0.0000
    27 H27     -0.6961 -12.0463 -14.0684   H         1 RES1   0.0000
    28 C28     -3.2328 -11.2030 -14.6712   C.3       1 RES1   0.0000
    29 H29     -2.7163 -11.5797 -15.5528   H         1 RES1   0.0000
    30 H30     -4.3020 -11.3838 -14.7719   H         1 RES1   0.0000
    31 C31     -2.9887  -9.7063 -14.5509   C.3       1 RES1   0.0000
    32 H32     -3.3032  -9.2190 -15.4726   H         1 RES1   0.0000
    33 H33     -3.5708  -9.3164 -13.7172   H         1 RES1   0.0000
    34 C34     -1.0290 -10.1762 -13.0760   C.3       1 RES1   0.0000
    35 H35     -1.5671  -9.8145 -12.2011   H         1 RES1   0.0000
    36 H36      0.0378 -10.0017 -12.9440   H         1 RES1   0.0000
    37 N37     -2.7266 -11.9193 -13.4636   N.4       1 RES1   1.0000
    38 H38     -3.2498 -11.6036 -12.6532   H         1 RES1   0.0000
    39 H39     -2.8693 -12.9161 -13.5911   H         1 RES1   0.0000
    40 N40     -2.4741  -4.1759 -12.4060   N.ar      1 RES1   0.0000
    41 C41     -1.0710  -3.6820 -10.1479   C.ar      1 RES1   0.0000
    42 H42     -0.5068  -3.4933  -9.2404   H         1 RES1   0.0000
    43 N43     -3.8280  -2.4106 -11.8503   N.pl3     1 RES1   0.0000
    44 H44     -4.0949  -1.6866 -11.1833   H         1 RES1   0.0000
    45 C45     -0.6634  -4.7173 -10.9648   C.ar      1 RES1   0.0000
    46 H46      0.2002  -5.3270 -10.7208   H         1 RES1   0.0000
    47 C47     -2.7755  -3.1875 -11.5485   C.ar      1 RES1   0.0000
    48 N48     -2.1231  -2.8969 -10.4135   N.ar      1 RES1   0.0000
    49 C49     -4.6544  -2.5781 -13.0456   C.3       1 RES1   0.0000
    50 H50     -4.6959  -3.6490 -13.2982   H         1 RES1   0.0000
    51 C51     -4.1048  -1.8216 -14.2389   C.ar      1 RES1   0.0000
    52 C52     -6.0626  -2.1051 -12.7040   C.3       1 RES1   0.0000
    53 H53     -6.7310  -2.2381 -13.5521   H         1 RES1   0.0000
    54 H54     -6.4664  -2.6653 -11.8633   H         1 RES1   0.0000
    55 H55     -6.0595  -1.0502 -12.4378   H         1 RES1   0.0000
    56 C56     -3.0887  -0.4209 -16.4220   C.ar      1 RES1   0.0000
    57 H57     -2.6924   0.1241 -17.2724   H         1 RES1   0.0000
    58 C58     -3.3840  -0.6499 -14.0579   C.ar      1 RES1   0.0000
    59 H59     -3.2146  -0.2747 -13.0540   H         1 RES1   0.0000
    60 C60     -4.3102  -2.2788 -15.5334   C.ar      1 RES1   0.0000
    61 H61     -4.8723  -3.1917 -15.6998   H         1 RES1   0.0000
    62 C62     -3.8042  -1.5817 -16.6176   C.ar      1 RES1   0.0000
    63 H63     -3.9721  -1.9513 -17.6236   H         1 RES1   0.0000
    64 C64     -2.8782   0.0453 -15.1431   C.ar      1 RES1   0.0000
    65 H65     -2.3150   0.9591 -14.9854   H         1 RES1   0.0000
@<TRIPOS>BOND
     1     1     5   ar
     2     1     6   ar
     3     1     2    1
     4     3     8   ar
     5     3     9   ar
     6     3     4    1
     7     5     9   ar
     8     5    11    1
     9     6     8   ar
    10     6     7    1
    11     8    12    1
    12     9    10    1
    13    11    20    2
    14    11    23    1
    15    13    14    1
    16    13    23   am
    17    13    24    1
    18    14    31    1
    19    14    34    1
    20    14    15    1
    21    16    24    1
    22    16    17    1
    23    16    18    1
    24    16    19    1
    25    20    21    1
    26    20    24    1
    27    21    40   ar
    28    21    45   ar
    29    22    23    2
    30    25    34    1
    31    25    37    1
    32    25    26    1
    33    25    27    1
    34    28    31    1
    35    28    37    1
    36    28    29    1
    37    28    30    1
    38    31    32    1
    39    31    33    1
    40    34    35    1
    41    34    36    1
    42    37    38    1
    43    37    39    1
    44    40    47   ar
    45    41    45   ar
    46    41    48   ar
    47    41    42    1
    48    43    47    1
    49    43    49    1
    50    43    44    1
    51    45    46    1
    52    47    48   ar
    53    49    51    1
    54    49    52    1
    55    49    50    1
    56    51    58   ar
    57    51    60   ar
    58    52    53    1
    59    52    54    1
    60    52    55    1
    61    56    62   ar
    62    56    64   ar
    63    56    57    1
    64    58    64   ar
    65    58    59    1
    66    60    62   ar
    67    60    61    1
    68    62    63    1
    69    64    65    1
@<TRIPOS>SUBSTRUCTURE
     1 RES1        1 GROUP             0 ****  ****    0  
@<TRIPOS>MOLECULE
LIGAND_00077
    65    69     1     0     0
SMALL
USER_CHARGES
****
Generated from the CSD

@<TRIPOS>ATOM
     1 C1       0.3359  -4.0444 -15.7323   C.ar      1 RES1   0.0000
     2 H2      -0.3718  -4.4422 -16.4516   H         1 RES1   0.0000
     3 C3       2.1186  -2.9892 -13.9046   C.ar      1 RES1   0.0000
     4 H4       2.8149  -2.5644 -13.1891   H         1 RES1   0.0000
     5 C5       0.5126  -4.6946 -14.5146   C.ar      1 RES1   0.0000
     6 C6       1.0410  -2.8953 -16.0437   C.ar      1 RES1   0.0000
     7 H7       0.9036  -2.4008 -16.9995   H         1 RES1   0.0000
     8 C8       1.9135  -2.3965 -15.1178   C.ar      1 RES1   0.0000
     9 C9       1.4177  -4.1446 -13.6113   C.ar      1 RES1   0.0000
    10 H10      1.5844  -4.6299 -12.6564   H         1 RES1   0.0000
    11 C11     -0.2467  -5.9380 -14.1617   C.2       1 RES1   0.0000
    12 F12      2.6063  -1.2636 -15.4151   F         1 RES1   0.0000
    13 N13     -1.2406  -7.9410 -14.1570   N.am      1 RES1   0.0000
    14 C14     -1.5106  -9.4109 -14.3092   C.3       1 RES1   0.0000
    15 H15     -0.9490  -9.7701 -15.1703   H         1 RES1   0.0000
    16 C16     -2.9634  -7.4981 -12.4712   C.3       1 RES1   0.0000
    17 H17     -3.2161  -6.7696 -11.7036   H         1 RES1   0.0000
    18 H18     -3.7034  -7.4237 -13.2653   H         1 RES1   0.0000
    19 H19     -3.0343  -8.4914 -12.0331   H         1 RES1   0.0000
    20 C20     -1.0688  -6.0097 -13.0848   C.2       1 RES1   0.0000
    21 C21     -1.4087  -4.9383 -12.1137   C.ar      1 RES1   0.0000
    22 O22      0.2750  -7.5989 -15.8623   O.2       1 RES1   0.0000
    23 C23     -0.3156  -7.1911 -14.8707   C.2       1 RES1   0.0000
    24 N24     -1.6169  -7.2574 -12.9912   N.3       1 RES1   0.0000
    25 C25     -1.2721 -11.6680 -13.2251   C.3       1 RES1   0.0000
    26 H26     -0.9608 -12.1784 -12.3148   H         1 RES1   0.0000
    27 H27     -0.6961 -12.0463 -14.0684   H         1 RES1   0.0000
    28 C28     -3.2328 -11.2030 -14.6712   C.3       1 RES1   0.0000
    29 H29     -2.7163 -11.5797 -15.5528   H         1 RES1   0.0000
    30 H30     -4.3020 -11.3838 -14.7719   H         1 RES1   0.0000
    31 C31     -2.9887  -9.7063 -14.5509   C.3       1 RES1   0.0000
    32 H32     -3.3032  -9.2190 -15.4726   H         1 RES1   0.0000
    33 H33     -3.5708  -9.3164 -13.7172   H         1 RES1   0.0000
    34 C34     -1.0290 -10.1762 -13.0760   C.3       1 RES1   0.0000
    35 H35     -1.5671  -9.8145 -12.2011   H         1 RES1   0.0000
    36 H36      0.0378 -10.0017 -12.9440   H         1 RES1   0.0000
    37 N37     -2.7266 -11.9193 -13.4636   N.4       1 RES1   1.0000
    38 H38     -3.2498 -11.6036 -12.6532   H         1 RES1   0.0000
    39 H39     -2.8693 -12.9161 -13.5911   H         1 RES1   0.0000
    40 N40     -0.6191  -4.8314 -11.0335   N.ar      1 RES1   0.0000
    41 C41     -2.7138  -3.1449 -11.3153   C.ar      1 RES1   0.0000
    42 H42     -3.5526  -2.4677 -11.4379   H         1 RES1   0.0000
    43 N43     -0.1558  -3.7890  -9.0443   N.pl3     1 RES1   0.0000
    44 H44      0.5972  -4.4679  -8.9329   H         1 RES1   0.0000
    45 C45     -2.4926  -4.0918 -12.2950   C.ar      1 RES1   0.0000
    46 H46     -3.1376  -4.1714 -13.1639   H         1 RES1   0.0000
    47 C47     -0.9320  -3.8832 -10.1357   C.ar      1 RES1   0.0000
    48 N48     -1.9515  -3.0164 -10.2217   N.ar      1 RES1   0.0000
    49 C49     -0.3613  -2.8133  -7.9741   C.3       1 RES1   0.0000
    50 H50     -1.4410  -2.6218  -7.8744   H         1 RES1   0.0000
    51 C51      0.3390  -1.4972  -8.2495   C.ar      1 RES1   0.0000
    52 C52      0.1429  -3.4362  -6.6775   C.3       1 RES1   0.0000
    53 H53     -0.0160  -2.7626  -5.8381   H         1 RES1   0.0000
    54 H54     -0.3775  -4.3682  -6.4672   H         1 RES1   0.0000
    55 H55      1.2077  -3.6502  -6.7428   H         1 RES1   0.0000
    56 C56      1.6395   0.9137  -8.7561   C.ar      1 RES1   0.0000
    57 H57      2.1458   1.8526  -8.9541   H         1 RES1   0.0000
    58 C58      1.7161  -1.4539  -8.4134   C.ar      1 RES1   0.0000
    59 H59      2.2931  -2.3700  -8.3430   H         1 RES1   0.0000
    60 C60     -0.3759  -0.3109  -8.3412   C.ar      1 RES1   0.0000
    61 H61     -1.4534  -0.3196  -8.2148   H         1 RES1   0.0000
    62 C62      0.2719   0.8867  -8.5934   C.ar      1 RES1   0.0000
    63 H63     -0.2999   1.8060  -8.6631   H         1 RES1   0.0000
    64 C64      2.3620  -0.2557  -8.6663   C.ar      1 RES1   0.0000
    65 H65      3.4392  -0.2382  -8.7940   H         1 RES1   0.0000
@<TRIPOS>BOND
     1     1     5   ar
     2     1     6   ar
     3     1     2    1
     4     3     8   ar
     5     3     9   ar
     6     3     4    1
     7     5     9   ar
     8     5    11    1
     9     6     8   ar
    10     6     7    1
    11     8    12    1
    12     9    10    1
    13    11    20    2
    14    11    23    1
    15    13    14    1
    16    13    23   am
    17    13    24    1
    18    14    31    1
    19    14    34    1
    20    14    15    1
    21    16    24    1
    22    16    17    1
    23    16    18    1
    24    16    19    1
    25    20    21    1
    26    20    24    1
    27    21    40   ar
    28    21    45   ar
    29    22    23    2
    30    25    34    1
    31    25    37    1
    32    25    26    1
    33    25    27    1
    34    28    31    1
    35    28    37    1
    36    28    29    1
    37    28    30    1
    38    31    32    1
    39    31    33    1
    40    34    35    1
    41    34    36    1
    42    37    38    1
    43    37    39    1
    44    40    47   ar
    45    41    45   ar
    46    41    48   ar
    47    41    42    1
    48    43    47    1
    49    43    49    1
    50    43    44    1
    51    45    46    1
    52    47    48   ar
    53    49    51    1
    54    49    52    1
    55    49    50    1
    56    51    58   ar
    57    51    60   ar
    58    52    53    1
    59    52    54    1
    60    52    55    1
    61    56    62   ar
    62    56    64   ar
    63    56    57    1
    64    58    64   ar
    65    58    59    1
    66    60    62   ar
    67    60    61    1
    68    62    63    1
    69    64    65    1
@<TRIPOS>SUBSTRUCTURE
     1 RES1        1 GROUP             0 ****  ****    0  
@<TRIPOS>MOLECULE
LIGAND_00078
    65    69     1     0     0
SMALL
USER_CHARGES
****
Generated from the CSD

@<TRIPOS>ATOM
     1 C1      -2.4792  -4.2529 -16.4101   C.ar      1 RES1   0.0000
     2 H2      -3.1362  -5.0584 -16.7201   H         1 RES1   0.0000
     3 C3      -0.8427  -2.1729 -15.6184   C.ar      1 RES1   0.0000
     4 H4      -0.2086  -1.3488 -15.3085   H         1 RES1   0.0000
     5 C5      -1.5965  -4.4580 -15.3540   C.ar      1 RES1   0.0000
     6 C6      -2.5412  -3.0390 -17.0712   C.ar      1 RES1   0.0000
     7 H7      -3.2259  -2.8917 -17.8997   H         1 RES1   0.0000
     8 C8      -1.7208  -2.0288 -16.6544   C.ar      1 RES1   0.0000
     9 C9      -0.7810  -3.3954 -14.9750   C.ar      1 RES1   0.0000
    10 H10     -0.0770  -3.5235 -14.1606   H         1 RES1   0.0000
    11 C11     -1.5206  -5.7662 -14.6259   C.2       1 RES1   0.0000
    12 F12     -1.7803  -0.8304 -17.2964   F         1 RES1   0.0000
    13 N13     -1.3114  -7.9562 -14.1607   N.am      1 RES1   0.0000
    14 C14     -1.6594  -9.4046 -14.3547   C.3       1 RES1   0.0000
    15 H15     -1.3268  -9.7019 -15.3481   H         1 RES1   0.0000
    16 C16     -1.1004  -7.7688 -11.7605   C.3       1 RES1   0.0000
    17 H17     -1.7555  -8.4614 -11.2362   H         1 RES1   0.0000
    18 H18     -0.1681  -8.2852 -11.9802   H         1 RES1   0.0000
    19 H19     -0.8794  -6.9388 -11.0928   H         1 RES1   0.0000
    20 C20     -1.7513  -5.9390 -13.3057   C.2       1 RES1   0.0000
    21 C21     -2.0254  -4.9138 -12.2663   C.ar      1 RES1   0.0000
    22 O22     -1.0792  -7.3834 -16.3739   O.2       1 RES1   0.0000
    23 C23     -1.2553  -7.0526 -15.2086   C.2       1 RES1   0.0000
    24 N24     -1.7311  -7.2889 -12.9907   N.3       1 RES1   0.0000
    25 C25     -1.2520 -11.7453 -13.5290   C.3       1 RES1   0.0000
    26 H26     -0.7548 -12.3324 -12.7582   H         1 RES1   0.0000
    27 H27     -0.9019 -12.0633 -14.5099   H         1 RES1   0.0000
    28 C28     -3.4788 -11.1344 -14.4346   C.3       1 RES1   0.0000
    29 H29     -3.1953 -11.4467 -15.4386   H         1 RES1   0.0000
    30 H30     -4.5476 -11.2897 -14.2944   H         1 RES1   0.0000
    31 C31     -3.1624  -9.6563 -14.2635   C.3       1 RES1   0.0000
    32 H32     -3.6663  -9.0913 -15.0463   H         1 RES1   0.0000
    33 H33     -3.5204  -9.3259 -13.2896   H         1 RES1   0.0000
    34 C34     -0.9301 -10.2744 -13.3301   C.3       1 RES1   0.0000
    35 H35     -1.2367  -9.9761 -12.3286   H         1 RES1   0.0000
    36 H36      0.1434 -10.1279 -13.4399   H         1 RES1   0.0000
    37 N37     -2.7298 -11.9537 -13.4370   N.4       1 RES1   1.0000
    38 H38     -3.0386 -11.6963 -12.5050   H         1 RES1   0.0000
    39 H39     -2.9323 -12.9346 -13.6016   H         1 RES1   0.0000
    40 N40     -1.1072  -4.7783 -11.2966   N.ar      1 RES1   0.0000
    41 C41     -3.3226  -3.2287 -11.2491   C.ar      1 RES1   0.0000
    42 H42     -4.2112  -2.6061 -11.2397   H         1 RES1   0.0000
    43 N43     -0.4495  -3.7510  -9.3549   N.pl3     1 RES1   0.0000
    44 H44      0.3528  -4.3808  -9.3642   H         1 RES1   0.0000
    45 C45     -3.1749  -4.1373 -12.2777   C.ar      1 RES1   0.0000
    46 H46     -3.9235  -4.2406 -13.0562   H         1 RES1   0.0000
    47 C47     -1.3567  -3.8727 -10.3371   C.ar      1 RES1   0.0000
    48 N48     -2.4311  -3.0737 -10.2618   N.ar      1 RES1   0.0000
    49 C49     -0.5715  -2.8146  -8.2379   C.3       1 RES1   0.0000
    50 H50     -1.6381  -2.6970  -7.9914   H         1 RES1   0.0000
    51 C51      0.0021  -1.4494  -8.5629   C.ar      1 RES1   0.0000
    52 C52      0.1389  -3.4308  -7.0383   C.3       1 RES1   0.0000
    53 H53      0.2362  -2.7059  -6.2328   H         1 RES1   0.0000
    54 H54     -0.4141  -4.2873  -6.6584   H         1 RES1   0.0000
    55 H55      1.1365  -3.7667  -7.3135   H         1 RES1   0.0000
    56 C56      1.0700   1.0545  -9.1551   C.ar      1 RES1   0.0000
    57 H57      1.4859   2.0295  -9.3865   H         1 RES1   0.0000
    58 C58      1.3404  -1.1732  -8.3225   C.ar      1 RES1   0.0000
    59 H59      1.9783  -1.9415  -7.8983   H         1 RES1   0.0000
    60 C60     -0.7934  -0.4483  -9.1032   C.ar      1 RES1   0.0000
    61 H61     -1.8433  -0.6404  -9.2982   H         1 RES1   0.0000
    62 C62     -0.2612   0.7957  -9.3974   C.ar      1 RES1   0.0000
    63 H63     -0.8948   1.5683  -9.8200   H         1 RES1   0.0000
    64 C64      1.8710   0.0710  -8.6180   C.ar      1 RES1   0.0000
    65 H65      2.9198   0.2714  -8.4260   H         1 RES1   0.0000
@<TRIPOS>BOND
     1     1     5   ar
     2     1     6   ar
     3     1     2    1
     4     3     8   ar
     5     3     9   ar
     6     3     4    1
     7     5     9   ar
     8     5    11    1
     9     6     8   ar
    10     6     7    1
    11     8    12    1
    12     9    10    1
    13    11    20    2
    14    11    23    1
    15    13    14    1
    16    13    23   am
    17    13    24    1
    18    14    31    1
    19    14    34    1
    20    14    15    1
    21    16    24    1
    22    16    17    1
    23    16    18    1
    24    16    19    1
    25    20    21    1
    26    20    24    1
    27    21    40   ar
    28    21    45   ar
    29    22    23    2
    30    25    34    1
    31    25    37    1
    32    25    26    1
    33    25    27    1
    34    28    31    1
    35    28    37    1
    36    28    29    1
    37    28    30    1
    38    31    32    1
    39    31    33    1
    40    34    35    1
    41    34    36    1
    42    37    38    1
    43    37    39    1
    44    40    47   ar
    45    41    45   ar
    46    41    48   ar
    47    41    42    1
    48    43    47    1
    49    43    49    1
    50    43    44    1
    51    45    46    1
    52    47    48   ar
    53    49    51    1
    54    49    52    1
    55    49    50    1
    56    51    58   ar
    57    51    60   ar
    58    52    53    1
    59    52    54    1
    60    52    55    1
    61    56    62   ar
    62    56    64   ar
    63    56    57    1
    64    58    64   ar
    65    58    59    1
    66    60    62   ar
    67    60    61    1
    68    62    63    1
    69    64    65    1
@<TRIPOS>SUBSTRUCTURE
     1 RES1        1 GROUP             0 ****  ****    0  
@<TRIPOS>MOLECULE
LIGAND_00079
    65    69     1     0     0
SMALL
USER_CHARGES
****
Generated from the CSD

@<TRIPOS>ATOM
     1 C1      -0.1519  -3.9049 -15.9278   C.ar      1 RES1   0.0000
     2 H2      -0.9364  -4.3018 -16.5630   H         1 RES1   0.0000
     3 C3       1.8250  -2.8525 -14.3104   C.ar      1 RES1   0.0000
     4 H4       2.5971  -2.4288 -13.6767   H         1 RES1   0.0000
     5 C5       0.1960  -4.5846 -14.7643   C.ar      1 RES1   0.0000
     6 C6       0.4789  -2.7278 -16.2899   C.ar      1 RES1   0.0000
     7 H7       0.2074  -2.2102 -17.2038   H         1 RES1   0.0000
     8 C8       1.4509  -2.2312 -15.4677   C.ar      1 RES1   0.0000
     9 C9       1.1963  -4.0352 -13.9670   C.ar      1 RES1   0.0000
    10 H10      1.4964  -4.5428 -13.0574   H         1 RES1   0.0000
    11 C11     -0.4809  -5.8586 -14.3571   C.2       1 RES1   0.0000
    12 F12      2.0718  -1.0711 -15.8147   F         1 RES1   0.0000
    13 N13     -1.2813  -7.9254 -14.1835   N.am      1 RES1   0.0000
    14 C14     -1.6080  -9.3803 -14.3655   C.3       1 RES1   0.0000
    15 H15     -1.1499  -9.7157 -15.2948   H         1 RES1   0.0000
    16 C16     -2.2316  -7.8097 -11.8465   C.3       1 RES1   0.0000
    17 H17     -2.7879  -7.0749 -11.2682   H         1 RES1   0.0000
    18 H18     -2.9109  -8.6178 -12.1101   H         1 RES1   0.0000
    19 H19     -1.4478  -8.2185 -11.2123   H         1 RES1   0.0000
    20 C20     -1.1594  -5.9688 -13.1688   C.2       1 RES1   0.0000
    21 C21     -1.4160  -4.9157 -12.1531   C.ar      1 RES1   0.0000
    22 O22     -0.1157  -7.5214 -16.0731   O.2       1 RES1   0.0000
    23 C23     -0.5674  -7.1254 -15.0065   C.2       1 RES1   0.0000
    24 N24     -1.6593  -7.1993 -13.0471   N.pl3     1 RES1   0.0000
    25 C25     -1.3229 -11.6873 -13.4045   C.3       1 RES1   0.0000
    26 H26     -0.9333 -12.2439 -12.5534   H         1 RES1   0.0000
    27 H27     -0.8492 -12.0428 -14.3184   H         1 RES1   0.0000
    28 C28     -3.4096 -11.1125 -14.6159   C.3       1 RES1   0.0000
    29 H29     -2.9989 -11.4633 -15.5615   H         1 RES1   0.0000
    30 H30     -4.4882 -11.2626 -14.6105   H         1 RES1   0.0000
    31 C31     -3.1112  -9.6288 -14.4617   C.3       1 RES1   0.0000
    32 H32     -3.5059  -9.0946 -15.3247   H         1 RES1   0.0000
    33 H33     -3.5916  -9.2611 -13.5563   H         1 RES1   0.0000
    34 C34     -1.0227 -10.2097 -13.2218   C.3       1 RES1   0.0000
    35 H35     -1.4559  -9.8730 -12.2812   H         1 RES1   0.0000
    36 H36      0.0566 -10.0672 -13.1960   H         1 RES1   0.0000
    37 N37     -2.8010 -11.8924 -13.4982   N.4       1 RES1   1.0000
    38 H38     -3.2275 -11.5992 -12.6251   H         1 RES1   0.0000
    39 H39     -2.9850 -12.8789 -13.6501   H         1 RES1   0.0000
    40 N40     -0.8662  -5.0993 -10.9425   N.ar      1 RES1   0.0000
    41 C41     -2.3708  -2.8985 -11.3940   C.ar      1 RES1   0.0000
    42 H42     -2.9709  -2.0147 -11.5841   H         1 RES1   0.0000
    43 N43     -0.5809  -4.3597  -8.7908   N.pl3     1 RES1   0.0000
    44 H44     -0.7019  -3.6246  -8.0941   H         1 RES1   0.0000
    45 C45     -2.1938  -3.7996 -12.4246   C.ar      1 RES1   0.0000
    46 H46     -2.6438  -3.6432 -13.3994   H         1 RES1   0.0000
    47 C47     -1.1127  -4.1667 -10.0084   C.ar      1 RES1   0.0000
    48 N48     -1.8442  -3.0549 -10.1726   N.ar      1 RES1   0.0000
    49 C49      0.2147  -5.5297  -8.4199   C.3       1 RES1   0.0000
    50 H50      0.7180  -5.9137  -9.3207   H         1 RES1   0.0000
    51 C51     -0.6315  -6.6405  -7.8294   C.ar      1 RES1   0.0000
    52 C52      1.2775  -5.0707  -7.4284   C.3       1 RES1   0.0000
    53 H53      1.9220  -5.8992  -7.1420   H         1 RES1   0.0000
    54 H54      1.9006  -4.2910  -7.8615   H         1 RES1   0.0000
    55 H55      0.8159  -4.6736  -6.5268   H         1 RES1   0.0000
    56 C56     -2.1778  -8.6809  -6.7313   C.ar      1 RES1   0.0000
    57 H57     -2.7806  -9.4751  -6.3035   H         1 RES1   0.0000
    58 C58     -0.3649  -7.1278  -6.5579   C.ar      1 RES1   0.0000
    59 H59      0.4559  -6.7094  -5.9849   H         1 RES1   0.0000
    60 C60     -1.6852  -7.1948  -8.5430   C.ar      1 RES1   0.0000
    61 H61     -1.9115  -6.8313  -9.5398   H         1 RES1   0.0000
    62 C62     -2.4532  -8.2088  -7.9957   C.ar      1 RES1   0.0000
    63 H63     -3.2741  -8.6321  -8.5649   H         1 RES1   0.0000
    64 C64     -1.1343  -8.1411  -6.0121   C.ar      1 RES1   0.0000
    65 H65     -0.9147  -8.5105  -5.0159   H         1 RES1   0.0000
@<TRIPOS>BOND
     1     1     5   ar
     2     1     6   ar
     3     1     2    1
     4     3     8   ar
     5     3     9   ar
     6     3     4    1
     7     5     9   ar
     8     5    11    1
     9     6     8   ar
    10     6     7    1
    11     8    12    1
    12     9    10    1
    13    11    20    2
    14    11    23    1
    15    13    14    1
    16    13    23   am
    17    13    24    1
    18    14    31    1
    19    14    34    1
    20    14    15    1
    21    16    24    1
    22    16    17    1
    23    16    18    1
    24    16    19    1
    25    20    21    1
    26    20    24    1
    27    21    40   ar
    28    21    45   ar
    29    22    23    2
    30    25    34    1
    31    25    37    1
    32    25    26    1
    33    25    27    1
    34    28    31    1
    35    28    37    1
    36    28    29    1
    37    28    30    1
    38    31    32    1
    39    31    33    1
    40    34    35    1
    41    34    36    1
    42    37    38    1
    43    37    39    1
    44    40    47   ar
    45    41    45   ar
    46    41    48   ar
    47    41    42    1
    48    43    47    1
    49    43    49    1
    50    43    44    1
    51    45    46    1
    52    47    48   ar
    53    49    51    1
    54    49    52    1
    55    49    50    1
    56    51    58   ar
    57    51    60   ar
    58    52    53    1
    59    52    54    1
    60    52    55    1
    61    56    62   ar
    62    56    64   ar
    63    56    57    1
    64    58    64   ar
    65    58    59    1
    66    60    62   ar
    67    60    61    1
    68    62    63    1
    69    64    65    1
@<TRIPOS>SUBSTRUCTURE
     1 RES1        1 GROUP             0 ****  ****    0  
@<TRIPOS>MOLECULE
LIGAND_00080
    65    69     1     0     0
SMALL
USER_CHARGES
****
Generated from the CSD

@<TRIPOS>ATOM
     1 C1      -0.4279  -3.4234 -14.9910   C.ar      1 RES1   0.0000
     2 H2      -1.5098  -3.4068 -14.9157   H         1 RES1   0.0000
     3 C3       2.3298  -3.4279 -15.1557   C.ar      1 RES1   0.0000
     4 H4       3.4131  -3.4197 -15.2152   H         1 RES1   0.0000
     5 C5       0.2584  -4.6050 -14.7273   C.ar      1 RES1   0.0000
     6 C6       0.2422  -2.2650 -15.3426   C.ar      1 RES1   0.0000
     7 H7      -0.3022  -1.3511 -15.5557   H         1 RES1   0.0000
     8 C8       1.6064  -2.2985 -15.4130   C.ar      1 RES1   0.0000
     9 C9       1.6473  -4.5824 -14.8187   C.ar      1 RES1   0.0000
    10 H10      2.2122  -5.4874 -14.6265   H         1 RES1   0.0000
    11 C11     -0.4533  -5.8668 -14.3417   C.2       1 RES1   0.0000
    12 F12      2.2723  -1.1614 -15.7528   F         1 RES1   0.0000
    13 N13     -1.2999  -7.9174 -14.1965   N.am      1 RES1   0.0000
    14 C14     -1.6525  -9.3642 -14.3934   C.3       1 RES1   0.0000
    15 H15     -1.1797  -9.7050 -15.3134   H         1 RES1   0.0000
    16 C16     -2.2976  -7.7936 -11.8799   C.3       1 RES1   0.0000
    17 H17     -2.8377  -7.0472 -11.3011   H         1 RES1   0.0000
    18 H18     -2.9995  -8.5754 -12.1630   H         1 RES1   0.0000
    19 H19     -1.5377  -8.2357 -11.2390   H         1 RES1   0.0000
    20 C20     -1.1594  -5.9688 -13.1688   C.2       1 RES1   0.0000
    21 C21     -1.4160  -4.9157 -12.1531   C.ar      1 RES1   0.0000
    22 O22     -0.0857  -7.5282 -16.0585   O.2       1 RES1   0.0000
    23 C23     -0.5519  -7.1283 -14.9997   C.2       1 RES1   0.0000
    24 N24     -1.6871  -7.1893 -13.0645   N.pl3     1 RES1   0.0000
    25 C25     -1.4386 -11.6810 -13.4375   C.3       1 RES1   0.0000
    26 H26     -1.0810 -12.2495 -12.5803   H         1 RES1   0.0000
    27 H27     -0.9510 -12.0423 -14.3417   H         1 RES1   0.0000
    28 C28     -3.4836 -11.0570 -14.6948   C.3       1 RES1   0.0000
    29 H29     -3.0581 -11.4121 -15.6323   H         1 RES1   0.0000
    30 H30     -4.5649 -11.1843 -14.7156   H         1 RES1   0.0000
    31 C31     -3.1579  -9.5806 -14.5263   C.3       1 RES1   0.0000
    32 H32     -3.5208  -9.0343 -15.3957   H         1 RES1   0.0000
    33 H33     -3.6518  -9.2069 -13.6306   H         1 RES1   0.0000
    34 C34     -1.1119 -10.2109 -13.2405   C.3       1 RES1   0.0000
    35 H35     -1.5601  -9.8693 -12.3086   H         1 RES1   0.0000
    36 H36     -0.0308 -10.0912 -13.1885   H         1 RES1   0.0000
    37 N37     -2.9181 -11.8545 -13.5670   N.4       1 RES1   1.0000
    38 H38     -3.3589 -11.5563 -12.7028   H         1 RES1   0.0000
    39 H39     -3.1190 -12.8362 -13.7282   H         1 RES1   0.0000
    40 N40     -0.8662  -5.0993 -10.9425   N.ar      1 RES1   0.0000
    41 C41     -2.3708  -2.8985 -11.3940   C.ar      1 RES1   0.0000
    42 H42     -2.9709  -2.0147 -11.5841   H         1 RES1   0.0000
    43 N43     -0.5809  -4.3597  -8.7908   N.pl3     1 RES1   0.0000
    44 H44     -0.0769  -5.2301  -8.6215   H         1 RES1   0.0000
    45 C45     -2.1938  -3.7996 -12.4246   C.ar      1 RES1   0.0000
    46 H46     -2.6438  -3.6432 -13.3994   H         1 RES1   0.0000
    47 C47     -1.1127  -4.1667 -10.0084   C.ar      1 RES1   0.0000
    48 N48     -1.8442  -3.0549 -10.1726   N.ar      1 RES1   0.0000
    49 C49     -0.7328  -3.4285  -7.6730   C.3       1 RES1   0.0000
    50 H50     -1.7003  -2.9125  -7.7731   H         1 RES1   0.0000
    51 C51      0.3680  -2.3867  -7.6350   C.ar      1 RES1   0.0000
    52 C52     -0.7503  -4.2477  -6.3878   C.3       1 RES1   0.0000
    53 H53     -0.8943  -3.6048  -5.5220   H         1 RES1   0.0000
    54 H54     -1.5561  -4.9785  -6.4049   H         1 RES1   0.0000
    55 H55      0.1888  -4.7820  -6.2601   H         1 RES1   0.0000
    56 C56      2.3951  -0.4777  -7.5511   C.ar      1 RES1   0.0000
    57 H57      3.1849   0.2654  -7.5189   H         1 RES1   0.0000
    58 C58      1.2060  -2.2887  -6.5336   C.ar      1 RES1   0.0000
    59 H59      1.0697  -2.9633  -5.6948   H         1 RES1   0.0000
    60 C60      0.5613  -1.5099  -8.6936   C.ar      1 RES1   0.0000
    61 H61     -0.0827  -1.5663  -9.5649   H         1 RES1   0.0000
    62 C62      1.5695  -0.5617  -8.6507   C.ar      1 RES1   0.0000
    63 H63      1.7092   0.1167  -9.4857   H         1 RES1   0.0000
    64 C64      2.2140  -1.3405  -6.4927   C.ar      1 RES1   0.0000
    65 H65      2.8625  -1.2772  -5.6252   H         1 RES1   0.0000
@<TRIPOS>BOND
     1     1     5   ar
     2     1     6   ar
     3     1     2    1
     4     3     8   ar
     5     3     9   ar
     6     3     4    1
     7     5     9   ar
     8     5    11    1
     9     6     8   ar
    10     6     7    1
    11     8    12    1
    12     9    10    1
    13    11    20    2
    14    11    23    1
    15    13    14    1
    16    13    23   am
    17    13    24    1
    18    14    31    1
    19    14    34    1
    20    14    15    1
    21    16    24    1
    22    16    17    1
    23    16    18    1
    24    16    19    1
    25    20    21    1
    26    20    24    1
    27    21    40   ar
    28    21    45   ar
    29    22    23    2
    30    25    34    1
    31    25    37    1
    32    25    26    1
    33    25    27    1
    34    28    31    1
    35    28    37    1
    36    28    29    1
    37    28    30    1
    38    31    32    1
    39    31    33    1
    40    34    35    1
    41    34    36    1
    42    37    38    1
    43    37    39    1
    44    40    47   ar
    45    41    45   ar
    46    41    48   ar
    47    41    42    1
    48    43    47    1
    49    43    49    1
    50    43    44    1
    51    45    46    1
    52    47    48   ar
    53    49    51    1
    54    49    52    1
    55    49    50    1
    56    51    58   ar
    57    51    60   ar
    58    52    53    1
    59    52    54    1
    60    52    55    1
    61    56    62   ar
    62    56    64   ar
    63    56    57    1
    64    58    64   ar
    65    58    59    1
    66    60    62   ar
    67    60    61    1
    68    62    63    1
    69    64    65    1
@<TRIPOS>SUBSTRUCTURE
     1 RES1        1 GROUP             0 ****  ****    0  
@<TRIPOS>MOLECULE
LIGAND_00081
    65    69     1     0     0
SMALL
USER_CHARGES
****
Generated from the CSD

@<TRIPOS>ATOM
     1 C1      -0.3713  -3.4231 -14.9573   C.ar      1 RES1   0.0000
     2 H2      -1.4529  -3.3899 -14.8832   H         1 RES1   0.0000
     3 C3       2.3862  -3.4703 -15.1184   C.ar      1 RES1   0.0000
     4 H4       3.4696  -3.4789 -15.1764   H         1 RES1   0.0000
     5 C5       0.2956  -4.6182 -14.7043   C.ar      1 RES1   0.0000
     6 C6       0.3177  -2.2722 -15.2965   C.ar      1 RES1   0.0000
     7 H7      -0.2116  -1.3476 -15.5014   H         1 RES1   0.0000
     8 C8       1.6813  -2.3269 -15.3655   C.ar      1 RES1   0.0000
     9 C9       1.6847  -4.6169 -14.7937   C.ar      1 RES1   0.0000
    10 H10      2.2348  -5.5327 -14.6096   H         1 RES1   0.0000
    11 C11     -0.4369  -5.8720 -14.3321   C.2       1 RES1   0.0000
    12 F12      2.3659  -1.1973 -15.6932   F         1 RES1   0.0000
    13 N13     -1.3109  -7.9123 -14.2046   N.am      1 RES1   0.0000
    14 C14     -1.6790  -9.3540 -14.4108   C.3       1 RES1   0.0000
    15 H15     -1.1986  -9.6978 -15.3256   H         1 RES1   0.0000
    16 C16     -2.3371  -7.7832 -11.9007   C.3       1 RES1   0.0000
    17 H17     -2.8753  -7.0318 -11.3266   H         1 RES1   0.0000
    18 H18     -3.0449  -8.5552 -12.1954   H         1 RES1   0.0000
    19 H19     -1.5911  -8.2367 -11.2515   H         1 RES1   0.0000
    20 C20     -1.1594  -5.9688 -13.1688   C.2       1 RES1   0.0000
    21 C21     -1.4160  -4.9157 -12.1531   C.ar      1 RES1   0.0000
    22 O22     -0.0678  -7.5326 -16.0494   O.2       1 RES1   0.0000
    23 C23     -0.5427  -7.1301 -14.9954   C.2       1 RES1   0.0000
    24 N24     -1.7037  -7.1829 -13.0754   N.pl3     1 RES1   0.0000
    25 C25     -1.5066 -11.6762 -13.4597   C.3       1 RES1   0.0000
    26 H26     -1.1672 -12.2518 -12.5998   H         1 RES1   0.0000
    27 H27     -1.0118 -12.0408 -14.3587   H         1 RES1   0.0000
    28 C28     -3.5270 -11.0226 -14.7414   C.3       1 RES1   0.0000
    29 H29     -3.0939 -11.3802 -15.6744   H         1 RES1   0.0000
    30 H30     -4.6095 -11.1363 -14.7766   H         1 RES1   0.0000
    31 C31     -3.1851  -9.5510 -14.5638   C.3       1 RES1   0.0000
    32 H32     -3.5298  -8.9975 -15.4361   H         1 RES1   0.0000
    33 H33     -3.6859  -9.1739 -13.6734   H         1 RES1   0.0000
    34 C34     -1.1641 -10.2109 -13.2536   C.3       1 RES1   0.0000
    35 H35     -1.6201  -9.8666 -12.3265   H         1 RES1   0.0000
    36 H36     -0.0823 -10.1050 -13.1873   H         1 RES1   0.0000
    37 N37     -2.9863 -11.8307 -13.6090   N.4       1 RES1   1.0000
    38 H38     -3.4345 -11.5296 -12.7495   H         1 RES1   0.0000
    39 H39     -3.1974 -12.8093 -13.7759   H         1 RES1   0.0000
    40 N40     -0.8662  -5.0993 -10.9425   N.ar      1 RES1   0.0000
    41 C41     -2.3708  -2.8985 -11.3940   C.ar      1 RES1   0.0000
    42 H42     -2.9709  -2.0147 -11.5841   H         1 RES1   0.0000
    43 N43     -0.5809  -4.3597  -8.7908   N.pl3     1 RES1   0.0000
    44 H44     -0.7017  -3.6245  -8.0942   H         1 RES1   0.0000
    45 C45     -2.1938  -3.7996 -12.4246   C.ar      1 RES1   0.0000
    46 H46     -2.6438  -3.6432 -13.3994   H         1 RES1   0.0000
    47 C47     -1.1127  -4.1667 -10.0084   C.ar      1 RES1   0.0000
    48 N48     -1.8442  -3.0549 -10.1726   N.ar      1 RES1   0.0000
    49 C49      0.2144  -5.5299  -8.4198   C.3       1 RES1   0.0000
    50 H50      0.7334  -5.9021  -9.3166   H         1 RES1   0.0000
    51 C51     -0.6356  -6.6506  -7.8541   C.ar      1 RES1   0.0000
    52 C52      1.2595  -5.0765  -7.4072   C.3       1 RES1   0.0000
    53 H53      1.9033  -5.9050  -7.1194   H         1 RES1   0.0000
    54 H54      1.8855  -4.2894  -7.8223   H         1 RES1   0.0000
    55 H55      0.7821  -4.6910  -6.5087   H         1 RES1   0.0000
    56 C56     -2.1893  -8.7094  -6.8015   C.ar      1 RES1   0.0000
    57 H57     -2.7949  -9.5108  -6.3915   H         1 RES1   0.0000
    58 C58     -0.3965  -7.1395  -6.5778   C.ar      1 RES1   0.0000
    59 H59      0.4055  -6.7150  -5.9830   H         1 RES1   0.0000
    60 C60     -1.6655  -7.2129  -8.5958   C.ar      1 RES1   0.0000
    61 H61     -1.8702  -6.8483  -9.5969   H         1 RES1   0.0000
    62 C62     -2.4372  -8.2359  -8.0711   C.ar      1 RES1   0.0000
    63 H63     -3.2393  -8.6653  -8.6621   H         1 RES1   0.0000
    64 C64     -1.1696  -8.1619  -6.0546   C.ar      1 RES1   0.0000
    65 H65     -0.9716  -8.5324  -5.0543   H         1 RES1   0.0000
@<TRIPOS>BOND
     1     1     5   ar
     2     1     6   ar
     3     1     2    1
     4     3     8   ar
     5     3     9   ar
     6     3     4    1
     7     5     9   ar
     8     5    11    1
     9     6     8   ar
    10     6     7    1
    11     8    12    1
    12     9    10    1
    13    11    20    2
    14    11    23    1
    15    13    14    1
    16    13    23   am
    17    13    24    1
    18    14    31    1
    19    14    34    1
    20    14    15    1
    21    16    24    1
    22    16    17    1
    23    16    18    1
    24    16    19    1
    25    20    21    1
    26    20    24    1
    27    21    40   ar
    28    21    45   ar
    29    22    23    2
    30    25    34    1
    31    25    37    1
    32    25    26    1
    33    25    27    1
    34    28    31    1
    35    28    37    1
    36    28    29    1
    37    28    30    1
    38    31    32    1
    39    31    33    1
    40    34    35    1
    41    34    36    1
    42    37    38    1
    43    37    39    1
    44    40    47   ar
    45    41    45   ar
    46    41    48   ar
    47    41    42    1
    48    43    47    1
    49    43    49    1
    50    43    44    1
    51    45    46    1
    52    47    48   ar
    53    49    51    1
    54    49    52    1
    55    49    50    1
    56    51    58   ar
    57    51    60   ar
    58    52    53    1
    59    52    54    1
    60    52    55    1
    61    56    62   ar
    62    56    64   ar
    63    56    57    1
    64    58    64   ar
    65    58    59    1
    66    60    62   ar
    67    60    61    1
    68    62    63    1
    69    64    65    1
@<TRIPOS>SUBSTRUCTURE
     1 RES1        1 GROUP             0 ****  ****    0  
@<TRIPOS>MOLECULE
LIGAND_00082
    65    69     1     0     0
SMALL
USER_CHARGES
****
Generated from the CSD

@<TRIPOS>ATOM
     1 C1      -0.7652  -3.8364 -15.9785   C.ar      1 RES1   0.0000
     2 H2      -1.6375  -4.2796 -16.4465   H         1 RES1   0.0000
     3 C3       1.4333  -2.6678 -14.7815   C.ar      1 RES1   0.0000
     4 H4       2.2915  -2.1988 -14.3117   H         1 RES1   0.0000
     5 C5      -0.1366  -4.5042 -14.9317   C.ar      1 RES1   0.0000
     6 C6      -0.3035  -2.6136 -16.4326   C.ar      1 RES1   0.0000
     7 H7      -0.7944  -2.1052 -17.2557   H         1 RES1   0.0000
     8 C8       0.7844  -2.0602 -15.8184   C.ar      1 RES1   0.0000
     9 C9       0.9701  -3.8958 -14.3462   C.ar      1 RES1   0.0000
    10 H10      1.4873  -4.3922 -13.5330   H         1 RES1   0.0000
    11 C11     -0.6274  -5.8275 -14.4264   C.2       1 RES1   0.0000
    12 F12      1.2406  -0.8551 -16.2561   F         1 RES1   0.0000
    13 N13     -1.1812  -7.9591 -14.1233   N.am      1 RES1   0.0000
    14 C14     -1.3695  -9.4450 -14.2382   C.3       1 RES1   0.0000
    15 H15     -0.9784  -9.7614 -15.2040   H         1 RES1   0.0000
    16 C16     -1.8830  -7.8670 -11.6991   C.3       1 RES1   0.0000
    17 H17     -2.4351  -7.1701 -11.0719   H         1 RES1   0.0000
    18 H18     -2.5103  -8.7396 -11.8690   H         1 RES1   0.0000
    19 H19     -0.9976  -8.1866 -11.1536   H         1 RES1   0.0000
    20 C20     -1.1594  -5.9688 -13.1688   C.2       1 RES1   0.0000
    21 C21     -1.4160  -4.9157 -12.1531   C.ar      1 RES1   0.0000
    22 O22     -0.2738  -7.4980 -16.1373   O.2       1 RES1   0.0000
    23 C23     -0.6481  -7.1166 -15.0360   C.2       1 RES1   0.0000
    24 N24     -1.5103  -7.2398 -12.9675   N.pl3     1 RES1   0.0000
    25 C25     -0.7431 -11.6781 -13.2646   C.3       1 RES1   0.0000
    26 H26     -0.2099 -12.1639 -12.4488   H         1 RES1   0.0000
    27 H27     -0.3329 -12.0125 -14.2164   H         1 RES1   0.0000
    28 C28     -2.9942 -11.3605 -14.2565   C.3       1 RES1   0.0000
    29 H29     -2.6501 -11.6976 -15.2332   H         1 RES1   0.0000
    30 H30     -4.0444 -11.6204 -14.1321   H         1 RES1   0.0000
    31 C31     -2.8398  -9.8498 -14.1669   C.3       1 RES1   0.0000
    32 H32     -3.3770  -9.3872 -14.9936   H         1 RES1   0.0000
    33 H33     -3.2589  -9.5043 -13.2230   H         1 RES1   0.0000
    34 C34     -0.5833 -10.1724 -13.1467   C.3       1 RES1   0.0000
    35 H35     -0.9488  -9.8517 -12.1723   H         1 RES1   0.0000
    36 H36      0.4716  -9.9188 -13.2402   H         1 RES1   0.0000
    37 N37     -2.1929 -12.0371 -13.1945   N.4       1 RES1   1.0000
    38 H38     -2.5543 -11.7612 -12.2870   H         1 RES1   0.0000
    39 H39     -2.2865 -13.0417 -13.3048   H         1 RES1   0.0000
    40 N40     -2.6992  -4.6898 -11.8302   N.ar      1 RES1   0.0000
    41 C41     -0.7580  -3.2243 -10.6488   C.ar      1 RES1   0.0000
    42 H42      0.0265  -2.6440 -10.1743   H         1 RES1   0.0000
    43 N43     -4.2293  -3.4806 -10.6241   N.pl3     1 RES1   0.0000
    44 H44     -4.4253  -2.7936  -9.8961   H         1 RES1   0.0000
    45 C45     -0.3913  -4.1856 -11.5689   C.ar      1 RES1   0.0000
    46 H46      0.6486  -4.3597 -11.8246   H         1 RES1   0.0000
    47 C47     -2.9451  -3.7222 -10.9322   C.ar      1 RES1   0.0000
    48 N48     -2.0280  -2.9671 -10.3100   N.ar      1 RES1   0.0000
    49 C49     -5.3625  -4.1861 -11.2222   C.3       1 RES1   0.0000
    50 H50     -5.0444  -5.2077 -11.4819   H         1 RES1   0.0000
    51 C51     -5.8699  -3.5047 -12.4779   C.ar      1 RES1   0.0000
    52 C52     -6.4611  -4.2727 -10.1692   C.3       1 RES1   0.0000
    53 H53     -7.3205  -4.8193 -10.5518   H         1 RES1   0.0000
    54 H54     -6.1040  -4.7839  -9.2777   H         1 RES1   0.0000
    55 H55     -6.7943  -3.2785  -9.8790   H         1 RES1   0.0000
    56 C56     -6.8162  -2.2508 -14.7784   C.ar      1 RES1   0.0000
    57 H57     -7.1843  -1.7618 -15.6742   H         1 RES1   0.0000
    58 C58     -7.1759  -3.0416 -12.5482   C.ar      1 RES1   0.0000
    59 H59     -7.8365  -3.1699 -11.6970   H         1 RES1   0.0000
    60 C60     -5.0460  -3.3311 -13.5814   C.ar      1 RES1   0.0000
    61 H61     -4.0214  -3.6866 -13.5505   H         1 RES1   0.0000
    62 C62     -5.5176  -2.7073 -14.7241   C.ar      1 RES1   0.0000
    63 H63     -4.8620  -2.5779 -15.5788   H         1 RES1   0.0000
    64 C64     -7.6455  -2.4175 -13.6913   C.ar      1 RES1   0.0000
    65 H65     -8.6688  -2.0590 -13.7305   H         1 RES1   0.0000
@<TRIPOS>BOND
     1     1     5   ar
     2     1     6   ar
     3     1     2    1
     4     3     8   ar
     5     3     9   ar
     6     3     4    1
     7     5     9   ar
     8     5    11    1
     9     6     8   ar
    10     6     7    1
    11     8    12    1
    12     9    10    1
    13    11    20    2
    14    11    23    1
    15    13    14    1
    16    13    23   am
    17    13    24    1
    18    14    31    1
    19    14    34    1
    20    14    15    1
    21    16    24    1
    22    16    17    1
    23    16    18    1
    24    16    19    1
    25    20    21    1
    26    20    24    1
    27    21    40   ar
    28    21    45   ar
    29    22    23    2
    30    25    34    1
    31    25    37    1
    32    25    26    1
    33    25    27    1
    34    28    31    1
    35    28    37    1
    36    28    29    1
    37    28    30    1
    38    31    32    1
    39    31    33    1
    40    34    35    1
    41    34    36    1
    42    37    38    1
    43    37    39    1
    44    40    47   ar
    45    41    45   ar
    46    41    48   ar
    47    41    42    1
    48    43    47    1
    49    43    49    1
    50    43    44    1
    51    45    46    1
    52    47    48   ar
    53    49    51    1
    54    49    52    1
    55    49    50    1
    56    51    58   ar
    57    51    60   ar
    58    52    53    1
    59    52    54    1
    60    52    55    1
    61    56    62   ar
    62    56    64   ar
    63    56    57    1
    64    58    64   ar
    65    58    59    1
    66    60    62   ar
    67    60    61    1
    68    62    63    1
    69    64    65    1
@<TRIPOS>SUBSTRUCTURE
     1 RES1        1 GROUP             0 ****  ****    0  
@<TRIPOS>MOLECULE
LIGAND_00083
    65    69     1     0     0
SMALL
USER_CHARGES
****
Generated from the CSD

@<TRIPOS>ATOM
     1 C1      -0.2045  -3.9085 -15.9540   C.ar      1 RES1   0.0000
     2 H2      -0.9847  -4.3229 -16.5833   H         1 RES1   0.0000
     3 C3       1.7607  -2.8117 -14.3519   C.ar      1 RES1   0.0000
     4 H4       2.5280  -2.3708 -13.7242   H         1 RES1   0.0000
     5 C5       0.1577  -4.5729 -14.7861   C.ar      1 RES1   0.0000
     6 C6       0.4066  -2.7247 -16.3278   C.ar      1 RES1   0.0000
     7 H7       0.1241  -2.2190 -17.2451   H         1 RES1   0.0000
     8 C8       1.3732  -2.2061 -15.5130   C.ar      1 RES1   0.0000
     9 C9       1.1517  -4.0013 -13.9967   C.ar      1 RES1   0.0000
    10 H10      1.4626  -4.4966 -13.0838   H         1 RES1   0.0000
    11 C11     -0.4978  -5.8540 -14.3662   C.2       1 RES1   0.0000
    12 F12      1.9747  -1.0392 -15.8716   F         1 RES1   0.0000
    13 N13     -1.2699  -7.9301 -14.1758   N.am      1 RES1   0.0000
    14 C14     -1.5806  -9.3896 -14.3490   C.3       1 RES1   0.0000
    15 H15     -1.1287  -9.7227 -15.2821   H         1 RES1   0.0000
    16 C16     -2.1911  -7.8187 -11.8270   C.3       1 RES1   0.0000
    17 H17     -2.7356  -7.0853 -11.2357   H         1 RES1   0.0000
    18 H18     -2.8759  -8.6257 -12.0795   H         1 RES1   0.0000
    19 H19     -1.3953  -8.2296 -11.2094   H         1 RES1   0.0000
    20 C20     -1.1594  -5.9688 -13.1688   C.2       1 RES1   0.0000
    21 C21     -1.4160  -4.9157 -12.1531   C.ar      1 RES1   0.0000
    22 O22     -0.1341  -7.5176 -16.0816   O.2       1 RES1   0.0000
    23 C23     -0.5768  -7.1239 -15.0105   C.2       1 RES1   0.0000
    24 N24     -1.6422  -7.2051 -13.0368   N.pl3     1 RES1   0.0000
    25 C25     -1.2566 -11.6893 -13.3830   C.3       1 RES1   0.0000
    26 H26     -0.8508 -12.2380 -12.5344   H         1 RES1   0.0000
    27 H27     -0.7886 -12.0423 -14.3008   H         1 RES1   0.0000
    28 C28     -3.3634 -11.1446 -14.5734   C.3       1 RES1   0.0000
    29 H29     -2.9588 -11.4938 -15.5223   H         1 RES1   0.0000
    30 H30     -4.4399 -11.3079 -14.5557   H         1 RES1   0.0000
    31 C31     -3.0816  -9.6568 -14.4278   C.3       1 RES1   0.0000
    32 H32     -3.4923  -9.1307 -15.2883   H         1 RES1   0.0000
    33 H33     -3.5566  -9.2917 -13.5184   H         1 RES1   0.0000
    34 C34     -0.9726 -10.2075 -13.2089   C.3       1 RES1   0.0000
    35 H35     -1.3996  -9.8726 -12.2647   H         1 RES1   0.0000
    36 H36      0.1051 -10.0516 -13.1955   H         1 RES1   0.0000
    37 N37     -2.7330 -11.9128 -13.4598   N.4       1 RES1   1.0000
    38 H38     -3.1535 -11.6217 -12.5831   H         1 RES1   0.0000
    39 H39     -2.9065 -12.9021 -13.6062   H         1 RES1   0.0000
    40 N40     -2.1741  -3.8776 -12.5396   N.ar      1 RES1   0.0000
    41 C41     -1.1917  -3.9353 -10.0211   C.ar      1 RES1   0.0000
    42 H42     -0.7990  -3.9680  -9.0102   H         1 RES1   0.0000
    43 N43     -3.1319  -1.8575 -12.0297   N.pl3     1 RES1   0.0000
    44 H44     -3.3367  -1.1331 -11.3415   H         1 RES1   0.0000
    45 C45     -0.8939  -4.9825 -10.8696   C.ar      1 RES1   0.0000
    46 H46     -0.2788  -5.8165 -10.5484   H         1 RES1   0.0000
    47 C47     -2.3915  -2.9067 -11.6379   C.ar      1 RES1   0.0000
    48 N48     -1.9371  -2.8809 -10.3765   N.ar      1 RES1   0.0000
    49 C49     -3.7160  -1.7189 -13.3636   C.3       1 RES1   0.0000
    50 H50     -3.9472  -2.7224 -13.7531   H         1 RES1   0.0000
    51 C51     -2.7798  -1.0279 -14.3355   C.ar      1 RES1   0.0000
    52 C52     -5.0193  -0.9420 -13.2191   C.3       1 RES1   0.0000
    53 H53     -5.5151  -0.8371 -14.1819   H         1 RES1   0.0000
    54 H54     -5.7008  -1.4511 -12.5408   H         1 RES1   0.0000
    55 H55     -4.8310   0.0545 -12.8251   H         1 RES1   0.0000
    56 C56     -1.0532   0.2497 -16.1095   C.ar      1 RES1   0.0000
    57 H57     -0.3803   0.7466 -16.8005   H         1 RES1   0.0000
    58 C58     -1.8528  -0.1010 -13.8809   C.ar      1 RES1   0.0000
    59 H59     -1.8002   0.1291 -12.8219   H         1 RES1   0.0000
    60 C60     -2.8290  -1.3023 -15.6953   C.ar      1 RES1   0.0000
    61 H61     -3.5468  -2.0220 -16.0744   H         1 RES1   0.0000
    62 C62     -1.9699  -0.6667 -16.5759   C.ar      1 RES1   0.0000
    63 H63     -2.0192  -0.8917 -17.6361   H         1 RES1   0.0000
    64 C64     -0.9941   0.5329 -14.7627   C.ar      1 RES1   0.0000
    65 H65     -0.2733   1.2540 -14.3920   H         1 RES1   0.0000
@<TRIPOS>BOND
     1     1     5   ar
     2     1     6   ar
     3     1     2    1
     4     3     8   ar
     5     3     9   ar
     6     3     4    1
     7     5     9   ar
     8     5    11    1
     9     6     8   ar
    10     6     7    1
    11     8    12    1
    12     9    10    1
    13    11    20    2
    14    11    23    1
    15    13    14    1
    16    13    23   am
    17    13    24    1
    18    14    31    1
    19    14    34    1
    20    14    15    1
    21    16    24    1
    22    16    17    1
    23    16    18    1
    24    16    19    1
    25    20    21    1
    26    20    24    1
    27    21    40   ar
    28    21    45   ar
    29    22    23    2
    30    25    34    1
    31    25    37    1
    32    25    26    1
    33    25    27    1
    34    28    31    1
    35    28    37    1
    36    28    29    1
    37    28    30    1
    38    31    32    1
    39    31    33    1
    40    34    35    1
    41    34    36    1
    42    37    38    1
    43    37    39    1
    44    40    47   ar
    45    41    45   ar
    46    41    48   ar
    47    41    42    1
    48    43    47    1
    49    43    49    1
    50    43    44    1
    51    45    46    1
    52    47    48   ar
    53    49    51    1
    54    49    52    1
    55    49    50    1
    56    51    58   ar
    57    51    60   ar
    58    52    53    1
    59    52    54    1
    60    52    55    1
    61    56    62   ar
    62    56    64   ar
    63    56    57    1
    64    58    64   ar
    65    58    59    1
    66    60    62   ar
    67    60    61    1
    68    62    63    1
    69    64    65    1
@<TRIPOS>SUBSTRUCTURE
     1 RES1        1 GROUP             0 ****  ****    0  
@<TRIPOS>MOLECULE
LIGAND_00084
    65    69     1     0     0
SMALL
USER_CHARGES
****
Generated from the CSD

@<TRIPOS>ATOM
     1 C1       0.3359  -4.0444 -15.7323   C.ar      1 RES1   0.0000
     2 H2      -0.3718  -4.4422 -16.4516   H         1 RES1   0.0000
     3 C3       2.1186  -2.9892 -13.9046   C.ar      1 RES1   0.0000
     4 H4       2.8149  -2.5644 -13.1891   H         1 RES1   0.0000
     5 C5       0.5126  -4.6946 -14.5146   C.ar      1 RES1   0.0000
     6 C6       1.0410  -2.8953 -16.0437   C.ar      1 RES1   0.0000
     7 H7       0.9036  -2.4008 -16.9995   H         1 RES1   0.0000
     8 C8       1.9135  -2.3965 -15.1178   C.ar      1 RES1   0.0000
     9 C9       1.4177  -4.1446 -13.6113   C.ar      1 RES1   0.0000
    10 H10      1.5844  -4.6299 -12.6564   H         1 RES1   0.0000
    11 C11     -0.2467  -5.9380 -14.1617   C.2       1 RES1   0.0000
    12 F12      2.6063  -1.2636 -15.4151   F         1 RES1   0.0000
    13 N13     -1.2406  -7.9410 -14.1570   N.am      1 RES1   0.0000
    14 C14     -1.5106  -9.4109 -14.3092   C.3       1 RES1   0.0000
    15 H15     -0.9490  -9.7701 -15.1703   H         1 RES1   0.0000
    16 C16     -2.9634  -7.4981 -12.4712   C.3       1 RES1   0.0000
    17 H17     -3.2161  -6.7696 -11.7036   H         1 RES1   0.0000
    18 H18     -3.7034  -7.4236 -13.2653   H         1 RES1   0.0000
    19 H19     -3.0343  -8.4914 -12.0332   H         1 RES1   0.0000
    20 C20     -1.0688  -6.0097 -13.0848   C.2       1 RES1   0.0000
    21 C21     -1.4087  -4.9383 -12.1137   C.ar      1 RES1   0.0000
    22 O22      0.2750  -7.5989 -15.8623   O.2       1 RES1   0.0000
    23 C23     -0.3156  -7.1911 -14.8707   C.2       1 RES1   0.0000
    24 N24     -1.6169  -7.2574 -12.9912   N.3       1 RES1   0.0000
    25 C25     -1.2721 -11.6680 -13.2251   C.3       1 RES1   0.0000
    26 H26     -0.9608 -12.1784 -12.3148   H         1 RES1   0.0000
    27 H27     -0.6962 -12.0463 -14.0684   H         1 RES1   0.0000
    28 C28     -3.2328 -11.2030 -14.6712   C.3       1 RES1   0.0000
    29 H29     -2.7163 -11.5797 -15.5528   H         1 RES1   0.0000
    30 H30     -4.3020 -11.3838 -14.7719   H         1 RES1   0.0000
    31 C31     -2.9887  -9.7063 -14.5509   C.3       1 RES1   0.0000
    32 H32     -3.3032  -9.2190 -15.4726   H         1 RES1   0.0000
    33 H33     -3.5708  -9.3164 -13.7172   H         1 RES1   0.0000
    34 C34     -1.0290 -10.1762 -13.0760   C.3       1 RES1   0.0000
    35 H35     -1.5671  -9.8145 -12.2011   H         1 RES1   0.0000
    36 H36      0.0378 -10.0017 -12.9440   H         1 RES1   0.0000
    37 N37     -2.7266 -11.9193 -13.4636   N.4       1 RES1   1.0000
    38 H38     -3.2498 -11.6036 -12.6532   H         1 RES1   0.0000
    39 H39     -2.8693 -12.9161 -13.5911   H         1 RES1   0.0000
    40 N40     -1.0980  -5.1692 -10.8285   N.ar      1 RES1   0.0000
    41 C41     -2.3055  -2.8456 -11.5027   C.ar      1 RES1   0.0000
    42 H42     -2.7847  -1.9129 -11.7813   H         1 RES1   0.0000
    43 N43     -1.1330  -4.4573  -8.6489   N.pl3     1 RES1   0.0000
    44 H44     -0.7068  -5.3534  -8.4128   H         1 RES1   0.0000
    45 C45     -2.0280  -3.7587 -12.5000   C.ar      1 RES1   0.0000
    46 H46     -2.2846  -3.5636 -13.5360   H         1 RES1   0.0000
    47 C47     -1.4239  -4.2187  -9.9377   C.ar      1 RES1   0.0000
    48 N48     -2.0171  -3.0474 -10.2104   N.ar      1 RES1   0.0000
    49 C49     -1.4465  -3.5391  -7.5543   C.3       1 RES1   0.0000
    50 H50     -1.0067  -2.5558  -7.7823   H         1 RES1   0.0000
    51 C51     -0.8976  -4.0167  -6.2242   C.ar      1 RES1   0.0000
    52 C52     -2.9623  -3.3910  -7.4948   C.3       1 RES1   0.0000
    53 H53     -3.2967  -3.2512  -6.4690   H         1 RES1   0.0000
    54 H54     -3.2911  -2.5334  -8.0781   H         1 RES1   0.0000
    55 H55     -3.4509  -4.2782  -7.8921   H         1 RES1   0.0000
    56 C56      0.1026  -4.9072  -3.7815   C.ar      1 RES1   0.0000
    57 H57      0.4928  -5.2542  -2.8305   H         1 RES1   0.0000
    58 C58     -1.2960  -5.2361  -5.6958   C.ar      1 RES1   0.0000
    59 H59     -2.0060  -5.8498  -6.2403   H         1 RES1   0.0000
    60 C60      0.0094  -3.2491  -5.5064   C.ar      1 RES1   0.0000
    61 H61      0.3343  -2.2912  -5.8988   H         1 RES1   0.0000
    62 C62      0.5059  -3.6932  -4.2925   C.ar      1 RES1   0.0000
    63 H63      1.2148  -3.0830  -3.7429   H         1 RES1   0.0000
    64 C64     -0.7979  -5.6789  -4.4822   C.ar      1 RES1   0.0000
    65 H65     -1.1176  -6.6356  -4.0828   H         1 RES1   0.0000
@<TRIPOS>BOND
     1     1     5   ar
     2     1     6   ar
     3     1     2    1
     4     3     8   ar
     5     3     9   ar
     6     3     4    1
     7     5     9   ar
     8     5    11    1
     9     6     8   ar
    10     6     7    1
    11     8    12    1
    12     9    10    1
    13    11    20    2
    14    11    23    1
    15    13    14    1
    16    13    23   am
    17    13    24    1
    18    14    31    1
    19    14    34    1
    20    14    15    1
    21    16    24    1
    22    16    17    1
    23    16    18    1
    24    16    19    1
    25    20    21    1
    26    20    24    1
    27    21    40   ar
    28    21    45   ar
    29    22    23    2
    30    25    34    1
    31    25    37    1
    32    25    26    1
    33    25    27    1
    34    28    31    1
    35    28    37    1
    36    28    29    1
    37    28    30    1
    38    31    32    1
    39    31    33    1
    40    34    35    1
    41    34    36    1
    42    37    38    1
    43    37    39    1
    44    40    47   ar
    45    41    45   ar
    46    41    48   ar
    47    41    42    1
    48    43    47    1
    49    43    49    1
    50    43    44    1
    51    45    46    1
    52    47    48   ar
    53    49    51    1
    54    49    52    1
    55    49    50    1
    56    51    58   ar
    57    51    60   ar
    58    52    53    1
    59    52    54    1
    60    52    55    1
    61    56    62   ar
    62    56    64   ar
    63    56    57    1
    64    58    64   ar
    65    58    59    1
    66    60    62   ar
    67    60    61    1
    68    62    63    1
    69    64    65    1
@<TRIPOS>SUBSTRUCTURE
     1 RES1        1 GROUP             0 ****  ****    0  
@<TRIPOS>MOLECULE
LIGAND_00085
    65    69     1     0     0
SMALL
USER_CHARGES
****
Generated from the CSD

@<TRIPOS>ATOM
     1 C1      -0.3098  -3.4844 -14.8709   C.ar      1 RES1   0.0000
     2 H2      -1.3912  -3.4813 -14.7881   H         1 RES1   0.0000
     3 C3       2.4465  -3.4542 -15.0551   C.ar      1 RES1   0.0000
     4 H4       3.5292  -3.4323 -15.1223   H         1 RES1   0.0000
     5 C5       0.3939  -4.6542 -14.6007   C.ar      1 RES1   0.0000
     6 C6       0.3424  -2.3207 -15.2383   C.ar      1 RES1   0.0000
     7 H7      -0.2154  -1.4161 -15.4564   H         1 RES1   0.0000
     8 C8       1.7064  -2.3369 -15.3181   C.ar      1 RES1   0.0000
     9 C9       1.7817  -4.6142 -14.7022   C.ar      1 RES1   0.0000
    10 H10      2.3599  -5.5098 -14.5053   H         1 RES1   0.0000
    11 C11     -0.2984  -5.9214 -14.1980   C.2       1 RES1   0.0000
    12 F12      2.3549  -1.1945 -15.6735   F         1 RES1   0.0000
    13 N13     -1.2094  -7.9621 -14.1229   N.am      1 RES1   0.0000
    14 C14     -1.4262  -9.4437 -14.2436   C.3       1 RES1   0.0000
    15 H15     -0.8845  -9.7940 -15.1209   H         1 RES1   0.0000
    16 C16     -2.8729  -7.5629 -12.3680   C.3       1 RES1   0.0000
    17 H17     -3.1092  -6.8497 -11.5810   H         1 RES1   0.0000
    18 H18     -3.6531  -7.5034 -13.1242   H         1 RES1   0.0000
    19 H19     -2.8927  -8.5621 -11.9379   H         1 RES1   0.0000
    20 C20     -1.0688  -6.0097 -13.0848   C.2       1 RES1   0.0000
    21 C21     -1.4087  -4.9383 -12.1137   C.ar      1 RES1   0.0000
    22 O22      0.2148  -7.5855 -15.8982   O.2       1 RES1   0.0000
    23 C23     -0.3477  -7.1867 -14.8868   C.2       1 RES1   0.0000
    24 N24     -1.5614  -7.2767 -12.9506   N.3       1 RES1   0.0000
    25 C25     -1.0562 -11.6724 -13.1379   C.3       1 RES1   0.0000
    26 H26     -0.6899 -12.1559 -12.2334   H         1 RES1   0.0000
    27 H27     -0.4987 -12.0410 -13.9977   H         1 RES1   0.0000
    28 C28     -3.0884 -11.3075 -14.5123   C.3       1 RES1   0.0000
    29 H29     -2.5917 -11.6773 -15.4081   H         1 RES1   0.0000
    30 H30     -4.1526 -11.5317 -14.5685   H         1 RES1   0.0000
    31 C31     -2.8997  -9.8007 -14.4229   C.3       1 RES1   0.0000
    32 H32     -3.2688  -9.3405 -15.3383   H         1 RES1   0.0000
    33 H33     -3.4642  -9.4209 -13.5725   H         1 RES1   0.0000
    34 C34     -0.8672 -10.1701 -13.0195   C.3       1 RES1   0.0000
    35 H35     -1.3851  -9.8161 -12.1293   H         1 RES1   0.0000
    36 H36      0.1960  -9.9517 -12.9319   H         1 RES1   0.0000
    37 N37     -2.5077 -11.9843 -13.3155   N.4       1 RES1   1.0000
    38 H38     -3.0114 -11.6767 -12.4897   H         1 RES1   0.0000
    39 H39     -2.6154 -12.9878 -13.4233   H         1 RES1   0.0000
    40 N40     -2.7044  -4.6015 -12.0170   N.ar      1 RES1   0.0000
    41 C41     -0.8828  -3.3107 -10.4916   C.ar      1 RES1   0.0000
    42 H42     -0.1470  -2.8011  -9.8782   H         1 RES1   0.0000
    43 N43     -4.3133  -3.2636 -11.0790   N.pl3     1 RES1   0.0000
    44 H44     -4.9789  -3.7415 -11.6864   H         1 RES1   0.0000
    45 C45     -0.4438  -4.3003 -11.3480   C.ar      1 RES1   0.0000
    46 H46      0.6060  -4.5644 -11.4202   H         1 RES1   0.0000
    47 C47     -3.0204  -3.6162 -11.1612   C.ar      1 RES1   0.0000
    48 N48     -2.1657  -2.9439 -10.3765   N.ar      1 RES1   0.0000
    49 C49     -4.8180  -2.1937 -10.2187   C.3       1 RES1   0.0000
    50 H50     -4.4966  -2.3919  -9.1844   H         1 RES1   0.0000
    51 C51     -6.3308  -2.0969 -10.2439   C.ar      1 RES1   0.0000
    52 C52     -4.1822  -0.8885 -10.6829   C.3       1 RES1   0.0000
    53 H53     -4.8110  -0.0392 -10.4241   H         1 RES1   0.0000
    54 H54     -3.2095  -0.7441 -10.2173   H         1 RES1   0.0000
    55 H55     -4.0441  -0.8909 -11.7620   H         1 RES1   0.0000
    56 C56     -9.1100  -1.9164 -10.3055   C.ar      1 RES1   0.0000
    57 H57    -10.1924  -1.8468 -10.3295   H         1 RES1   0.0000
    58 C58     -6.9999  -1.8454 -11.4330   C.ar      1 RES1   0.0000
    59 H59     -6.4337  -1.7171 -12.3497   H         1 RES1   0.0000
    60 C60     -7.0780  -2.2541  -9.0847   C.ar      1 RES1   0.0000
    61 H61     -6.5768  -2.4497  -8.1425   H         1 RES1   0.0000
    62 C62     -8.4594  -2.1645  -9.1169   C.ar      1 RES1   0.0000
    63 H63     -9.0305  -2.2902  -8.2031   H         1 RES1   0.0000
    64 C64     -8.3812  -1.7569 -11.4635   C.ar      1 RES1   0.0000
    65 H65     -8.8903  -1.5615 -12.4014   H         1 RES1   0.0000
@<TRIPOS>BOND
     1     1     5   ar
     2     1     6   ar
     3     1     2    1
     4     3     8   ar
     5     3     9   ar
     6     3     4    1
     7     5     9   ar
     8     5    11    1
     9     6     8   ar
    10     6     7    1
    11     8    12    1
    12     9    10    1
    13    11    20    2
    14    11    23    1
    15    13    14    1
    16    13    23   am
    17    13    24    1
    18    14    31    1
    19    14    34    1
    20    14    15    1
    21    16    24    1
    22    16    17    1
    23    16    18    1
    24    16    19    1
    25    20    21    1
    26    20    24    1
    27    21    40   ar
    28    21    45   ar
    29    22    23    2
    30    25    34    1
    31    25    37    1
    32    25    26    1
    33    25    27    1
    34    28    31    1
    35    28    37    1
    36    28    29    1
    37    28    30    1
    38    31    32    1
    39    31    33    1
    40    34    35    1
    41    34    36    1
    42    37    38    1
    43    37    39    1
    44    40    47   ar
    45    41    45   ar
    46    41    48   ar
    47    41    42    1
    48    43    47    1
    49    43    49    1
    50    43    44    1
    51    45    46    1
    52    47    48   ar
    53    49    51    1
    54    49    52    1
    55    49    50    1
    56    51    58   ar
    57    51    60   ar
    58    52    53    1
    59    52    54    1
    60    52    55    1
    61    56    62   ar
    62    56    64   ar
    63    56    57    1
    64    58    64   ar
    65    58    59    1
    66    60    62   ar
    67    60    61    1
    68    62    63    1
    69    64    65    1
@<TRIPOS>SUBSTRUCTURE
     1 RES1        1 GROUP             0 ****  ****    0  
@<TRIPOS>MOLECULE
LIGAND_00086
    65    69     1     0     0
SMALL
USER_CHARGES
****
Generated from the CSD

@<TRIPOS>ATOM
     1 C1      -3.0248  -3.8117 -15.3691   C.ar      1 RES1   0.0000
     2 H2      -3.8579  -4.2218 -14.8086   H         1 RES1   0.0000
     3 C3      -0.9094  -2.7260 -16.7756   C.ar      1 RES1   0.0000
     4 H4      -0.0813  -2.2894 -17.3241   H         1 RES1   0.0000
     5 C5      -1.8085  -4.4880 -15.3803   C.ar      1 RES1   0.0000
     6 C6      -3.1929  -2.6215 -16.0545   C.ar      1 RES1   0.0000
     7 H7      -4.1477  -2.1065 -16.0477   H         1 RES1   0.0000
     8 C8      -2.1271  -2.1087 -16.7387   C.ar      1 RES1   0.0000
     9 C9      -0.7584  -3.9218 -16.0977   C.ar      1 RES1   0.0000
    10 H10      0.2005  -4.4262 -16.1329   H         1 RES1   0.0000
    11 C11     -1.6101  -5.7761 -14.6397   C.2       1 RES1   0.0000
    12 F12     -2.2837  -0.9357 -17.4105   F         1 RES1   0.0000
    13 N13     -1.2406  -7.9410 -14.1570   N.am      1 RES1   0.0000
    14 C14     -1.5106  -9.4109 -14.3092   C.3       1 RES1   0.0000
    15 H15     -1.2171  -9.7059 -15.3156   H         1 RES1   0.0000
    16 C16     -0.8997  -7.6987 -11.7768   C.3       1 RES1   0.0000
    17 H17     -1.4822  -8.4146 -11.2005   H         1 RES1   0.0000
    18 H18      0.0444  -8.1684 -12.0450   H         1 RES1   0.0000
    19 H19     -0.6845  -6.8442 -11.1387   H         1 RES1   0.0000
    20 C20     -1.7513  -5.9390 -13.3057   C.2       1 RES1   0.0000
    21 C21     -2.0254  -4.9138 -12.2663   C.ar      1 RES1   0.0000
    22 O22     -1.1751  -7.3947 -16.3880   O.2       1 RES1   0.0000
    23 C23     -1.3018  -7.0544 -15.2191   C.2       1 RES1   0.0000
    24 N24     -1.6302  -7.2794 -12.9734   N.3       1 RES1   0.0000
    25 C25     -0.9160 -11.7077 -13.4737   C.3       1 RES1   0.0000
    26 H26     -0.3413 -12.2498 -12.7242   H         1 RES1   0.0000
    27 H27     -0.6031 -12.0220 -14.4683   H         1 RES1   0.0000
    28 C28     -3.2233 -11.2475 -14.2588   C.3       1 RES1   0.0000
    29 H29     -2.9785 -11.5605 -15.2727   H         1 RES1   0.0000
    30 H30     -4.2710 -11.4637 -14.0552   H         1 RES1   0.0000
    31 C31     -2.9880  -9.7502 -14.1281   C.3       1 RES1   0.0000
    32 H32     -3.5686  -9.2307 -14.8889   H         1 RES1   0.0000
    33 H33     -3.3098  -9.4240 -13.1402   H         1 RES1   0.0000
    34 C34     -0.6731 -10.2168 -13.3154   C.3       1 RES1   0.0000
    35 H35     -0.9402  -9.9191 -12.3025   H         1 RES1   0.0000
    36 H36      0.3816 -10.0085 -13.4888   H         1 RES1   0.0000
    37 N37     -2.3708 -12.0022 -13.2938   N.4       1 RES1   1.0000
    38 H38     -2.6415 -11.7467 -12.3495   H         1 RES1   0.0000
    39 H39     -2.5225 -12.9962 -13.4320   H         1 RES1   0.0000
    40 N40     -3.3153  -4.6658 -11.9899   N.ar      1 RES1   0.0000
    41 C41     -1.3914  -3.2906 -10.6788   C.ar      1 RES1   0.0000
    42 H42     -0.6140  -2.7468 -10.1523   H         1 RES1   0.0000
    43 N43     -4.8658  -3.4583 -10.8082   N.pl3     1 RES1   0.0000
    44 H44     -5.0757  -2.7775 -10.0784   H         1 RES1   0.0000
    45 C45     -1.0092  -4.2301 -11.6151   C.ar      1 RES1   0.0000
    46 H46      0.0362  -4.4223 -11.8328   H         1 RES1   0.0000
    47 C47     -3.5758  -3.7226 -11.0704   C.ar      1 RES1   0.0000
    48 N48     -2.6681  -3.0123 -10.3849   N.ar      1 RES1   0.0000
    49 C49     -5.9892  -4.1317 -11.4595   C.3       1 RES1   0.0000
    50 H50     -5.6955  -5.1684 -11.6859   H         1 RES1   0.0000
    51 C51     -6.3992  -3.4531 -12.7517   C.ar      1 RES1   0.0000
    52 C52     -7.1478  -4.1605 -10.4695   C.3       1 RES1   0.0000
    53 H53     -8.0042  -4.6815 -10.8924   H         1 RES1   0.0000
    54 H54     -6.8608  -4.6696  -9.5518   H         1 RES1   0.0000
    55 H55     -7.4592  -3.1501 -10.2131   H         1 RES1   0.0000
    56 C56     -7.1556  -2.1930 -15.1183   C.ar      1 RES1   0.0000
    57 H57     -7.4494  -1.7022 -16.0402   H         1 RES1   0.0000
    58 C58     -6.8222  -2.1317 -12.7489   C.ar      1 RES1   0.0000
    59 H59     -6.8593  -1.5829 -11.8136   H         1 RES1   0.0000
    60 C60     -6.3638  -4.1339 -13.9609   C.ar      1 RES1   0.0000
    61 H61     -6.0382  -5.1685 -13.9877   H         1 RES1   0.0000
    62 C62     -6.7397  -3.5062 -15.1365   C.ar      1 RES1   0.0000
    63 H63     -6.7064  -4.0506 -16.0743   H         1 RES1   0.0000
    64 C64     -7.1970  -1.5054 -13.9254   C.ar      1 RES1   0.0000
    65 H65     -7.5239  -0.4711 -13.9074   H         1 RES1   0.0000
@<TRIPOS>BOND
     1     1     5   ar
     2     1     6   ar
     3     1     2    1
     4     3     8   ar
     5     3     9   ar
     6     3     4    1
     7     5     9   ar
     8     5    11    1
     9     6     8   ar
    10     6     7    1
    11     8    12    1
    12     9    10    1
    13    11    20    2
    14    11    23    1
    15    13    14    1
    16    13    23   am
    17    13    24    1
    18    14    31    1
    19    14    34    1
    20    14    15    1
    21    16    24    1
    22    16    17    1
    23    16    18    1
    24    16    19    1
    25    20    21    1
    26    20    24    1
    27    21    40   ar
    28    21    45   ar
    29    22    23    2
    30    25    34    1
    31    25    37    1
    32    25    26    1
    33    25    27    1
    34    28    31    1
    35    28    37    1
    36    28    29    1
    37    28    30    1
    38    31    32    1
    39    31    33    1
    40    34    35    1
    41    34    36    1
    42    37    38    1
    43    37    39    1
    44    40    47   ar
    45    41    45   ar
    46    41    48   ar
    47    41    42    1
    48    43    47    1
    49    43    49    1
    50    43    44    1
    51    45    46    1
    52    47    48   ar
    53    49    51    1
    54    49    52    1
    55    49    50    1
    56    51    58   ar
    57    51    60   ar
    58    52    53    1
    59    52    54    1
    60    52    55    1
    61    56    62   ar
    62    56    64   ar
    63    56    57    1
    64    58    64   ar
    65    58    59    1
    66    60    62   ar
    67    60    61    1
    68    62    63    1
    69    64    65    1
@<TRIPOS>SUBSTRUCTURE
     1 RES1        1 GROUP             0 ****  ****    0  
@<TRIPOS>MOLECULE
LIGAND_00087
    65    69     1     0     0
SMALL
USER_CHARGES
****
Generated from the CSD

@<TRIPOS>ATOM
     1 C1      -0.7111  -3.3903 -14.9802   C.ar      1 RES1   0.0000
     2 H2      -1.7715  -3.4230 -14.7544   H         1 RES1   0.0000
     3 C3       1.9939  -3.2698 -15.5280   C.ar      1 RES1   0.0000
     4 H4       3.0569  -3.2126 -15.7378   H         1 RES1   0.0000
     5 C5       0.0539  -4.5446 -14.8417   C.ar      1 RES1   0.0000
     6 C6      -0.1458  -2.1976 -15.3954   C.ar      1 RES1   0.0000
     7 H7      -0.7522  -1.3053 -15.5097   H         1 RES1   0.0000
     8 C8       1.1952  -2.1694 -15.6562   C.ar      1 RES1   0.0000
     9 C9       1.4140  -4.4589 -15.1254   C.ar      1 RES1   0.0000
    10 H10      2.0375  -5.3410 -15.0344   H         1 RES1   0.0000
    11 C11     -0.5436  -5.8429 -14.3893   C.2       1 RES1   0.0000
    12 F12      1.7590  -0.9984 -16.0596   F         1 RES1   0.0000
    13 N13     -1.2388  -7.9417 -14.1559   N.am      1 RES1   0.0000
    14 C14     -1.5063  -9.4121 -14.3069   C.3       1 RES1   0.0000
    15 H15     -1.0757  -9.7385 -15.2524   H         1 RES1   0.0000
    16 C16     -2.0819  -7.8397 -11.7776   C.3       1 RES1   0.0000
    17 H17     -2.6305  -7.1197 -11.1738   H         1 RES1   0.0000
    18 H18     -2.7471  -8.6716 -11.9999   H         1 RES1   0.0000
    19 H19     -1.2520  -8.2180 -11.1845   H         1 RES1   0.0000
    20 C20     -1.1594  -5.9688 -13.1688   C.2       1 RES1   0.0000
    21 C21     -1.4160  -4.9157 -12.1531   C.ar      1 RES1   0.0000
    22 O22     -0.1837  -7.5089 -16.1032   O.2       1 RES1   0.0000
    23 C23     -0.6022  -7.1205 -15.0205   C.2       1 RES1   0.0000
    24 N24     -1.5958  -7.2192 -13.0104   N.pl3     1 RES1   0.0000
    25 C25     -1.0727 -11.6911 -13.3346   C.3       1 RES1   0.0000
    26 H26     -0.6199 -12.2183 -12.4962   H         1 RES1   0.0000
    27 H27     -0.6249 -12.0367 -14.2652   H         1 RES1   0.0000
    28 C28     -3.2360 -11.2273 -14.4557   C.3       1 RES1   0.0000
    29 H29     -2.8528 -11.5714 -15.4152   H         1 RES1   0.0000
    30 H30     -4.3053 -11.4259 -14.3995   H         1 RES1   0.0000
    31 C31     -2.9993  -9.7297 -14.3316   C.3       1 RES1   0.0000
    32 H32     -3.4567  -9.2252 -15.1815   H         1 RES1   0.0000
    33 H33     -3.4548  -9.3723 -13.4093   H         1 RES1   0.0000
    34 C34     -0.8326 -10.1991 -13.1821   C.3       1 RES1   0.0000
    35 H35     -1.2379  -9.8701 -12.2264   H         1 RES1   0.0000
    36 H36      0.2391 -10.0075 -13.2071   H         1 RES1   0.0000
    37 N37     -2.5425 -11.9641 -13.3585   N.4       1 RES1   1.0000
    38 H38     -2.9422 -11.6792 -12.4701   H         1 RES1   0.0000
    39 H39     -2.6878 -12.9599 -13.4910   H         1 RES1   0.0000
    40 N40     -0.3411  -4.2871 -11.6519   N.ar      1 RES1   0.0000
    41 C41     -2.8045  -3.6095 -10.7664   C.ar      1 RES1   0.0000
    42 H42     -3.7964  -3.3386 -10.4200   H         1 RES1   0.0000
    43 N43      0.5165  -2.7366 -10.1964   N.pl3     1 RES1   0.0000
    44 H44      0.3609  -1.9913  -9.5176   H         1 RES1   0.0000
    45 C45     -2.6965  -4.5965 -11.7253   C.ar      1 RES1   0.0000
    46 H46     -3.5713  -5.1000 -12.1232   H         1 RES1   0.0000
    47 C47     -0.5591  -3.3512 -10.7141   C.ar      1 RES1   0.0000
    48 N48     -1.7533  -2.9686 -10.2391   N.ar      1 RES1   0.0000
    49 C49      1.8949  -3.0255 -10.5916   C.3       1 RES1   0.0000
    50 H50      1.9051  -3.3050 -11.6565   H         1 RES1   0.0000
    51 C51      2.5005  -4.1602  -9.7889   C.ar      1 RES1   0.0000
    52 C52      2.7036  -1.7452 -10.4180   C.3       1 RES1   0.0000
    53 H53      3.7352  -1.8947 -10.7298   H         1 RES1   0.0000
    54 H54      2.2833  -0.9376 -11.0137   H         1 RES1   0.0000
    55 H55      2.7071  -1.4312  -9.3763   H         1 RES1   0.0000
    56 C56      3.6109  -6.2370  -8.3010   C.ar      1 RES1   0.0000
    57 H57      4.0427  -7.0463  -7.7216   H         1 RES1   0.0000
    58 C58      2.6141  -4.0637  -8.4095   C.ar      1 RES1   0.0000
    59 H59      2.2667  -3.1684  -7.9045   H         1 RES1   0.0000
    60 C60      2.9552  -5.3147 -10.4111   C.ar      1 RES1   0.0000
    61 H61      2.8785  -5.4122 -11.4890   H         1 RES1   0.0000
    62 C62      3.5066  -6.3464  -9.6702   C.ar      1 RES1   0.0000
    63 H63      3.8572  -7.2432 -10.1700   H         1 RES1   0.0000
    64 C64      3.1650  -5.0965  -7.6702   C.ar      1 RES1   0.0000
    65 H65      3.2455  -5.0071  -6.5920   H         1 RES1   0.0000
@<TRIPOS>BOND
     1     1     5   ar
     2     1     6   ar
     3     1     2    1
     4     3     8   ar
     5     3     9   ar
     6     3     4    1
     7     5     9   ar
     8     5    11    1
     9     6     8   ar
    10     6     7    1
    11     8    12    1
    12     9    10    1
    13    11    20    2
    14    11    23    1
    15    13    14    1
    16    13    23   am
    17    13    24    1
    18    14    31    1
    19    14    34    1
    20    14    15    1
    21    16    24    1
    22    16    17    1
    23    16    18    1
    24    16    19    1
    25    20    21    1
    26    20    24    1
    27    21    40   ar
    28    21    45   ar
    29    22    23    2
    30    25    34    1
    31    25    37    1
    32    25    26    1
    33    25    27    1
    34    28    31    1
    35    28    37    1
    36    28    29    1
    37    28    30    1
    38    31    32    1
    39    31    33    1
    40    34    35    1
    41    34    36    1
    42    37    38    1
    43    37    39    1
    44    40    47   ar
    45    41    45   ar
    46    41    48   ar
    47    41    42    1
    48    43    47    1
    49    43    49    1
    50    43    44    1
    51    45    46    1
    52    47    48   ar
    53    49    51    1
    54    49    52    1
    55    49    50    1
    56    51    58   ar
    57    51    60   ar
    58    52    53    1
    59    52    54    1
    60    52    55    1
    61    56    62   ar
    62    56    64   ar
    63    56    57    1
    64    58    64   ar
    65    58    59    1
    66    60    62   ar
    67    60    61    1
    68    62    63    1
    69    64    65    1
@<TRIPOS>SUBSTRUCTURE
     1 RES1        1 GROUP             0 ****  ****    0  
@<TRIPOS>MOLECULE
LIGAND_00088
    65    69     1     0     0
SMALL
USER_CHARGES
****
Generated from the CSD

@<TRIPOS>ATOM
     1 C1      -0.5130  -3.8750 -15.9968   C.ar      1 RES1   0.0000
     2 H2      -1.3338  -4.3180 -16.5504   H         1 RES1   0.0000
     3 C3       1.5542  -2.7065 -14.5850   C.ar      1 RES1   0.0000
     4 H4       2.3610  -2.2375 -14.0316   H         1 RES1   0.0000
     5 C5      -0.0126  -4.5288 -14.8748   C.ar      1 RES1   0.0000
     6 C6       0.0114  -2.6663 -16.4191   C.ar      1 RES1   0.0000
     7 H7      -0.3790  -2.1688 -17.3007   H         1 RES1   0.0000
     8 C8       1.0316  -2.1124 -15.6983   C.ar      1 RES1   0.0000
     9 C9       1.0302  -3.9209 -14.1814   C.ar      1 RES1   0.0000
    10 H10      1.4481  -4.4067 -13.3071   H         1 RES1   0.0000
    11 C11     -0.5729  -5.8368 -14.4030   C.2       1 RES1   0.0000
    12 F12      1.5486  -0.9210 -16.1047   F         1 RES1   0.0000
    13 N13     -1.2188  -7.9483 -14.1440   N.am      1 RES1   0.0000
    14 C14     -1.4586  -9.4248 -14.2817   C.3       1 RES1   0.0000
    15 H15     -1.0418  -9.7474 -15.2346   H         1 RES1   0.0000
    16 C16     -2.0123  -7.8509 -11.7485   C.3       1 RES1   0.0000
    17 H17     -2.5620  -7.1389 -11.1363   H         1 RES1   0.0000
    18 H18     -2.6651  -8.6972 -11.9520   H         1 RES1   0.0000
    19 H19     -1.1620  -8.2090 -11.1719   H         1 RES1   0.0000
    20 C20     -1.1594  -5.9688 -13.1688   C.2       1 RES1   0.0000
    21 C21     -1.4160  -4.9157 -12.1531   C.ar      1 RES1   0.0000
    22 O22     -0.2152  -7.5044 -16.1159   O.2       1 RES1   0.0000
    23 C23     -0.6183  -7.1188 -15.0263   C.2       1 RES1   0.0000
    24 N24     -1.5660  -7.2271 -12.9947   N.pl3     1 RES1   0.0000
    25 C25     -0.9565 -11.6888 -13.3075   C.3       1 RES1   0.0000
    26 H26     -0.4749 -12.2019 -12.4764   H         1 RES1   0.0000
    27 H27     -0.5218 -12.0302 -14.2458   H         1 RES1   0.0000
    28 C28     -3.1528 -11.2764 -14.3838   C.3       1 RES1   0.0000
    29 H29     -2.7832 -11.6177 -15.3496   H         1 RES1   0.0000
    30 H30     -4.2162 -11.4970 -14.3034   H         1 RES1   0.0000
    31 C31     -2.9448  -9.7735 -14.2725   C.3       1 RES1   0.0000
    32 H32     -3.4309  -9.2834 -15.1148   H         1 RES1   0.0000
    33 H33     -3.3877  -9.4206 -13.3423   H         1 RES1   0.0000
    34 C34     -0.7445 -10.1914 -13.1678   C.3       1 RES1   0.0000
    35 H35     -1.1359  -9.8657 -12.2052   H         1 RES1   0.0000
    36 H36      0.3222  -9.9777 -13.2170   H         1 RES1   0.0000
    37 N37     -2.4205 -11.9925 -13.2982   N.4       1 RES1   1.0000
    38 H38     -2.8069 -11.7111 -12.4028   H         1 RES1   0.0000
    39 H39     -2.5477 -12.9918 -13.4225   H         1 RES1   0.0000
    40 N40     -0.3411  -4.2871 -11.6519   N.ar      1 RES1   0.0000
    41 C41     -2.8045  -3.6095 -10.7664   C.ar      1 RES1   0.0000
    42 H42     -3.7964  -3.3386 -10.4200   H         1 RES1   0.0000
    43 N43      0.5165  -2.7366 -10.1964   N.pl3     1 RES1   0.0000
    44 H44      0.3609  -1.9913  -9.5176   H         1 RES1   0.0000
    45 C45     -2.6965  -4.5965 -11.7253   C.ar      1 RES1   0.0000
    46 H46     -3.5713  -5.1000 -12.1232   H         1 RES1   0.0000
    47 C47     -0.5591  -3.3512 -10.7141   C.ar      1 RES1   0.0000
    48 N48     -1.7533  -2.9686 -10.2391   N.ar      1 RES1   0.0000
    49 C49      1.8949  -3.0255 -10.5916   C.3       1 RES1   0.0000
    50 H50      1.9051  -3.3050 -11.6565   H         1 RES1   0.0000
    51 C51      2.5005  -4.1601  -9.7889   C.ar      1 RES1   0.0000
    52 C52      2.7036  -1.7452 -10.4181   C.3       1 RES1   0.0000
    53 H53      3.7352  -1.8947 -10.7299   H         1 RES1   0.0000
    54 H54      2.2833  -0.9376 -11.0138   H         1 RES1   0.0000
    55 H55      2.7071  -1.4312  -9.3764   H         1 RES1   0.0000
    56 C56      3.6110  -6.2369  -8.3008   C.ar      1 RES1   0.0000
    57 H57      4.0428  -7.0461  -7.7213   H         1 RES1   0.0000
    58 C58      2.6141  -4.0635  -8.4094   C.ar      1 RES1   0.0000
    59 H59      2.2667  -3.1682  -7.9045   H         1 RES1   0.0000
    60 C60      2.9553  -5.3147 -10.4110   C.ar      1 RES1   0.0000
    61 H61      2.8785  -5.4122 -11.4888   H         1 RES1   0.0000
    62 C62      3.5067  -6.3463  -9.6700   C.ar      1 RES1   0.0000
    63 H63      3.8573  -7.2431 -10.1698   H         1 RES1   0.0000
    64 C64      3.1651  -5.0963  -7.6701   C.ar      1 RES1   0.0000
    65 H65      3.2455  -5.0069  -6.5919   H         1 RES1   0.0000
@<TRIPOS>BOND
     1     1     5   ar
     2     1     6   ar
     3     1     2    1
     4     3     8   ar
     5     3     9   ar
     6     3     4    1
     7     5     9   ar
     8     5    11    1
     9     6     8   ar
    10     6     7    1
    11     8    12    1
    12     9    10    1
    13    11    20    2
    14    11    23    1
    15    13    14    1
    16    13    23   am
    17    13    24    1
    18    14    31    1
    19    14    34    1
    20    14    15    1
    21    16    24    1
    22    16    17    1
    23    16    18    1
    24    16    19    1
    25    20    21    1
    26    20    24    1
    27    21    40   ar
    28    21    45   ar
    29    22    23    2
    30    25    34    1
    31    25    37    1
    32    25    26    1
    33    25    27    1
    34    28    31    1
    35    28    37    1
    36    28    29    1
    37    28    30    1
    38    31    32    1
    39    31    33    1
    40    34    35    1
    41    34    36    1
    42    37    38    1
    43    37    39    1
    44    40    47   ar
    45    41    45   ar
    46    41    48   ar
    47    41    42    1
    48    43    47    1
    49    43    49    1
    50    43    44    1
    51    45    46    1
    52    47    48   ar
    53    49    51    1
    54    49    52    1
    55    49    50    1
    56    51    58   ar
    57    51    60   ar
    58    52    53    1
    59    52    54    1
    60    52    55    1
    61    56    62   ar
    62    56    64   ar
    63    56    57    1
    64    58    64   ar
    65    58    59    1
    66    60    62   ar
    67    60    61    1
    68    62    63    1
    69    64    65    1
@<TRIPOS>SUBSTRUCTURE
     1 RES1        1 GROUP             0 ****  ****    0  
@<TRIPOS>MOLECULE
LIGAND_00089
    65    69     1     0     0
SMALL
USER_CHARGES
****
Generated from the CSD

@<TRIPOS>ATOM
     1 C1      -2.4790  -4.2529 -16.4101   C.ar      1 RES1   0.0000
     2 H2      -3.1360  -5.0583 -16.7202   H         1 RES1   0.0000
     3 C3      -0.8424  -2.1729 -15.6183   C.ar      1 RES1   0.0000
     4 H4      -0.2083  -1.3489 -15.3084   H         1 RES1   0.0000
     5 C5      -1.5963  -4.4580 -15.3540   C.ar      1 RES1   0.0000
     6 C6      -2.5409  -3.0389 -17.0712   C.ar      1 RES1   0.0000
     7 H7      -3.2255  -2.8916 -17.8997   H         1 RES1   0.0000
     8 C8      -1.7205  -2.0287 -16.6543   C.ar      1 RES1   0.0000
     9 C9      -0.7808  -3.3954 -14.9749   C.ar      1 RES1   0.0000
    10 H10     -0.0769  -3.5236 -14.1605   H         1 RES1   0.0000
    11 C11     -1.5206  -5.7662 -14.6259   C.2       1 RES1   0.0000
    12 F12     -1.7798  -0.8303 -17.2963   F         1 RES1   0.0000
    13 N13     -1.3115  -7.9562 -14.1607   N.am      1 RES1   0.0000
    14 C14     -1.6596  -9.4046 -14.3547   C.3       1 RES1   0.0000
    15 H15     -1.3267  -9.7019 -15.3481   H         1 RES1   0.0000
    16 C16     -1.1005  -7.7689 -11.7605   C.3       1 RES1   0.0000
    17 H17     -1.7557  -8.4616 -11.2363   H         1 RES1   0.0000
    18 H18     -0.1682  -8.2851 -11.9801   H         1 RES1   0.0000
    19 H19     -0.8797  -6.9389 -11.0927   H         1 RES1   0.0000
    20 C20     -1.7513  -5.9390 -13.3057   C.2       1 RES1   0.0000
    21 C21     -2.0254  -4.9138 -12.2663   C.ar      1 RES1   0.0000
    22 O22     -1.0791  -7.3834 -16.3739   O.2       1 RES1   0.0000
    23 C23     -1.2553  -7.0526 -15.2086   C.2       1 RES1   0.0000
    24 N24     -1.7311  -7.2889 -12.9907   N.3       1 RES1   0.0000
    25 C25     -1.2524 -11.7453 -13.5289   C.3       1 RES1   0.0000
    26 H26     -0.7554 -12.3324 -12.7581   H         1 RES1   0.0000
    27 H27     -0.9021 -12.0633 -14.5098   H         1 RES1   0.0000
    28 C28     -3.4791 -11.1343 -14.4350   C.3       1 RES1   0.0000
    29 H29     -3.1953 -11.4466 -15.4389   H         1 RES1   0.0000
    30 H30     -4.5478 -11.2895 -14.2950   H         1 RES1   0.0000
    31 C31     -3.1626  -9.6562 -14.2638   C.3       1 RES1   0.0000
    32 H32     -3.6663  -9.0912 -15.0467   H         1 RES1   0.0000
    33 H33     -3.5207  -9.3257 -13.2900   H         1 RES1   0.0000
    34 C34     -0.9305 -10.2744 -13.3300   C.3       1 RES1   0.0000
    35 H35     -1.2372  -9.9761 -12.3286   H         1 RES1   0.0000
    36 H36      0.1430 -10.1280 -13.4395   H         1 RES1   0.0000
    37 N37     -2.7302 -11.9536 -13.4371   N.4       1 RES1   1.0000
    38 H38     -3.0392 -11.6961 -12.5052   H         1 RES1   0.0000
    39 H39     -2.9328 -12.9344 -13.6018   H         1 RES1   0.0000
    40 N40     -1.1072  -4.7783 -11.2966   N.ar      1 RES1   0.0000
    41 C41     -3.3226  -3.2287 -11.2491   C.ar      1 RES1   0.0000
    42 H42     -4.2112  -2.6061 -11.2397   H         1 RES1   0.0000
    43 N43     -0.4495  -3.7510  -9.3549   N.pl3     1 RES1   0.0000
    44 H44     -0.6153  -3.0476  -8.6352   H         1 RES1   0.0000
    45 C45     -3.1749  -4.1373 -12.2777   C.ar      1 RES1   0.0000
    46 H46     -3.9235  -4.2406 -13.0562   H         1 RES1   0.0000
    47 C47     -1.3567  -3.8727 -10.3371   C.ar      1 RES1   0.0000
    48 N48     -2.4311  -3.0737 -10.2618   N.ar      1 RES1   0.0000
    49 C49      0.7928  -4.5202  -9.2866   C.3       1 RES1   0.0000
    50 H50      0.5455  -5.5927  -9.3170   H         1 RES1   0.0000
    51 C51      1.5763  -4.2413  -8.0190   C.ar      1 RES1   0.0000
    52 C52      1.6175  -4.1771 -10.5217   C.3       1 RES1   0.0000
    53 H53      2.6784  -4.3253 -10.3311   H         1 RES1   0.0000
    54 H54      1.3337  -4.8047 -11.3639   H         1 RES1   0.0000
    55 H55      1.4670  -3.1382 -10.8077   H         1 RES1   0.0000
    56 C56      3.0108  -3.7143  -5.6899   C.ar      1 RES1   0.0000
    57 H57      3.5690  -3.5094  -4.7824   H         1 RES1   0.0000
    58 C58      1.5496  -2.9815  -7.4383   C.ar      1 RES1   0.0000
    59 H59      0.9634  -2.1923  -7.8973   H         1 RES1   0.0000
    60 C60      2.3364  -5.2328  -7.4140   C.ar      1 RES1   0.0000
    61 H61      2.3741  -6.2252  -7.8508   H         1 RES1   0.0000
    62 C62      3.0487  -4.9695  -6.2561   C.ar      1 RES1   0.0000
    63 H63      3.6379  -5.7544  -5.7939   H         1 RES1   0.0000
    64 C64      2.2618  -2.7202  -6.2801   C.ar      1 RES1   0.0000
    65 H65      2.2296  -1.7306  -5.8368   H         1 RES1   0.0000
@<TRIPOS>BOND
     1     1     5   ar
     2     1     6   ar
     3     1     2    1
     4     3     8   ar
     5     3     9   ar
     6     3     4    1
     7     5     9   ar
     8     5    11    1
     9     6     8   ar
    10     6     7    1
    11     8    12    1
    12     9    10    1
    13    11    20    2
    14    11    23    1
    15    13    14    1
    16    13    23   am
    17    13    24    1
    18    14    31    1
    19    14    34    1
    20    14    15    1
    21    16    24    1
    22    16    17    1
    23    16    18    1
    24    16    19    1
    25    20    21    1
    26    20    24    1
    27    21    40   ar
    28    21    45   ar
    29    22    23    2
    30    25    34    1
    31    25    37    1
    32    25    26    1
    33    25    27    1
    34    28    31    1
    35    28    37    1
    36    28    29    1
    37    28    30    1
    38    31    32    1
    39    31    33    1
    40    34    35    1
    41    34    36    1
    42    37    38    1
    43    37    39    1
    44    40    47   ar
    45    41    45   ar
    46    41    48   ar
    47    41    42    1
    48    43    47    1
    49    43    49    1
    50    43    44    1
    51    45    46    1
    52    47    48   ar
    53    49    51    1
    54    49    52    1
    55    49    50    1
    56    51    58   ar
    57    51    60   ar
    58    52    53    1
    59    52    54    1
    60    52    55    1
    61    56    62   ar
    62    56    64   ar
    63    56    57    1
    64    58    64   ar
    65    58    59    1
    66    60    62   ar
    67    60    61    1
    68    62    63    1
    69    64    65    1
@<TRIPOS>SUBSTRUCTURE
     1 RES1        1 GROUP             0 ****  ****    0  
@<TRIPOS>MOLECULE
LIGAND_00090
    65    69     1     0     0
SMALL
USER_CHARGES
****
Generated from the CSD

@<TRIPOS>ATOM
     1 C1      -2.7104  -3.7024 -15.4395   C.ar      1 RES1   0.0000
     2 H2      -3.6195  -4.0709 -14.9768   H         1 RES1   0.0000
     3 C3      -0.4010  -2.7228 -16.5967   C.ar      1 RES1   0.0000
     4 H4       0.5035  -2.3279 -17.0474   H         1 RES1   0.0000
     5 C5      -1.5419  -4.4524 -15.3451   C.ar      1 RES1   0.0000
     6 C6      -2.7361  -2.4910 -16.1076   C.ar      1 RES1   0.0000
     7 H7      -3.6541  -1.9180 -16.1841   H         1 RES1   0.0000
     8 C8      -1.5770  -2.0320 -16.6672   C.ar      1 RES1   0.0000
     9 C9      -0.3920  -3.9386 -15.9379   C.ar      1 RES1   0.0000
    10 H10      0.5337  -4.5007 -15.8890   H         1 RES1   0.0000
    11 C11     -1.4977  -5.7645 -14.6215   C.2       1 RES1   0.0000
    12 F12     -1.5937  -0.8387 -17.3211   F         1 RES1   0.0000
    13 N13     -1.3297  -7.9594 -14.1624   N.am      1 RES1   0.0000
    14 C14     -1.6972  -9.4014 -14.3678   C.3       1 RES1   0.0000
    15 H15     -1.3543  -9.6998 -15.3574   H         1 RES1   0.0000
    16 C16     -1.1528  -7.7849 -11.7585   C.3       1 RES1   0.0000
    17 H17     -1.8262  -8.4700 -11.2477   H         1 RES1   0.0000
    18 H18     -0.2249  -8.3141 -11.9659   H         1 RES1   0.0000
    19 H19     -0.9301  -6.9612 -11.0835   H         1 RES1   0.0000
    20 C20     -1.7513  -5.9390 -13.3057   C.2       1 RES1   0.0000
    21 C21     -2.0254  -4.9138 -12.2663   C.ar      1 RES1   0.0000
    22 O22     -1.0546  -7.3815 -16.3693   O.2       1 RES1   0.0000
    23 C23     -1.2434  -7.0526 -15.2055   C.2       1 RES1   0.0000
    24 N24     -1.7569  -7.2903 -12.9961   N.3       1 RES1   0.0000
    25 C25     -1.3386 -11.7515 -13.5462   C.3       1 RES1   0.0000
    26 H26     -0.8622 -12.3494 -12.7706   H         1 RES1   0.0000
    27 H27     -0.9787 -12.0709 -14.5231   H         1 RES1   0.0000
    28 C28     -3.5418 -11.1023 -14.4825   C.3       1 RES1   0.0000
    29 H29     -3.2480 -11.4149 -15.4834   H         1 RES1   0.0000
    30 H30     -4.6148 -11.2415 -14.3590   H         1 RES1   0.0000
    31 C31     -3.2051  -9.6301 -14.3003   C.3       1 RES1   0.0000
    32 H32     -3.6883  -9.0541 -15.0881   H         1 RES1   0.0000
    33 H33     -3.5726  -9.2981 -13.3304   H         1 RES1   0.0000
    34 C34     -0.9970 -10.2867 -13.3362   C.3       1 RES1   0.0000
    35 H35     -1.3139  -9.9877 -12.3381   H         1 RES1   0.0000
    36 H36      0.0802 -10.1564 -13.4292   H         1 RES1   0.0000
    37 N37     -2.8207 -11.9372 -13.4772   N.4       1 RES1   1.0000
    38 H38     -3.1394 -11.6788 -12.5489   H         1 RES1   0.0000
    39 H39     -3.0359 -12.9141 -13.6491   H         1 RES1   0.0000
    40 N40     -1.1072  -4.7783 -11.2966   N.ar      1 RES1   0.0000
    41 C41     -3.3226  -3.2287 -11.2491   C.ar      1 RES1   0.0000
    42 H42     -4.2112  -2.6061 -11.2397   H         1 RES1   0.0000
    43 N43     -0.4495  -3.7510  -9.3549   N.pl3     1 RES1   0.0000
    44 H44     -0.6153  -3.0476  -8.6352   H         1 RES1   0.0000
    45 C45     -3.1749  -4.1373 -12.2777   C.ar      1 RES1   0.0000
    46 H46     -3.9235  -4.2406 -13.0562   H         1 RES1   0.0000
    47 C47     -1.3567  -3.8727 -10.3371   C.ar      1 RES1   0.0000
    48 N48     -2.4311  -3.0737 -10.2618   N.ar      1 RES1   0.0000
    49 C49      0.7929  -4.5201  -9.2867   C.3       1 RES1   0.0000
    50 H50      0.5456  -5.5926  -9.3169   H         1 RES1   0.0000
    51 C51      1.5766  -4.2410  -8.0193   C.ar      1 RES1   0.0000
    52 C52      1.6174  -4.1772 -10.5219   C.3       1 RES1   0.0000
    53 H53      2.6817  -4.2464 -10.3073   H         1 RES1   0.0000
    54 H54      1.3917  -4.8582 -11.3399   H         1 RES1   0.0000
    55 H55      1.4049  -3.1639 -10.8565   H         1 RES1   0.0000
    56 C56      3.0114  -3.7134  -5.6905   C.ar      1 RES1   0.0000
    57 H57      3.5697  -3.5083  -4.7831   H         1 RES1   0.0000
    58 C58      1.5496  -2.9812  -7.4385   C.ar      1 RES1   0.0000
    59 H59      0.9630  -2.1921  -7.8973   H         1 RES1   0.0000
    60 C60      2.3372  -5.2322  -7.4144   C.ar      1 RES1   0.0000
    61 H61      2.3751  -6.2246  -7.8512   H         1 RES1   0.0000
    62 C62      3.0495  -4.9686  -6.2567   C.ar      1 RES1   0.0000
    63 H63      3.6392  -5.7533  -5.7946   H         1 RES1   0.0000
    64 C64      2.2619  -2.7197  -6.2805   C.ar      1 RES1   0.0000
    65 H65      2.2295  -1.7300  -5.8372   H         1 RES1   0.0000
@<TRIPOS>BOND
     1     1     5   ar
     2     1     6   ar
     3     1     2    1
     4     3     8   ar
     5     3     9   ar
     6     3     4    1
     7     5     9   ar
     8     5    11    1
     9     6     8   ar
    10     6     7    1
    11     8    12    1
    12     9    10    1
    13    11    20    2
    14    11    23    1
    15    13    14    1
    16    13    23   am
    17    13    24    1
    18    14    31    1
    19    14    34    1
    20    14    15    1
    21    16    24    1
    22    16    17    1
    23    16    18    1
    24    16    19    1
    25    20    21    1
    26    20    24    1
    27    21    40   ar
    28    21    45   ar
    29    22    23    2
    30    25    34    1
    31    25    37    1
    32    25    26    1
    33    25    27    1
    34    28    31    1
    35    28    37    1
    36    28    29    1
    37    28    30    1
    38    31    32    1
    39    31    33    1
    40    34    35    1
    41    34    36    1
    42    37    38    1
    43    37    39    1
    44    40    47   ar
    45    41    45   ar
    46    41    48   ar
    47    41    42    1
    48    43    47    1
    49    43    49    1
    50    43    44    1
    51    45    46    1
    52    47    48   ar
    53    49    51    1
    54    49    52    1
    55    49    50    1
    56    51    58   ar
    57    51    60   ar
    58    52    53    1
    59    52    54    1
    60    52    55    1
    61    56    62   ar
    62    56    64   ar
    63    56    57    1
    64    58    64   ar
    65    58    59    1
    66    60    62   ar
    67    60    61    1
    68    62    63    1
    69    64    65    1
@<TRIPOS>SUBSTRUCTURE
     1 RES1        1 GROUP             0 ****  ****    0  
@<TRIPOS>MOLECULE
LIGAND_00091
    65    69     1     0     0
SMALL
USER_CHARGES
****
Generated from the CSD

@<TRIPOS>ATOM
     1 C1      -3.0248  -3.8117 -15.3691   C.ar      1 RES1   0.0000
     2 H2      -3.8579  -4.2218 -14.8086   H         1 RES1   0.0000
     3 C3      -0.9094  -2.7260 -16.7756   C.ar      1 RES1   0.0000
     4 H4      -0.0813  -2.2894 -17.3241   H         1 RES1   0.0000
     5 C5      -1.8085  -4.4880 -15.3803   C.ar      1 RES1   0.0000
     6 C6      -3.1929  -2.6215 -16.0545   C.ar      1 RES1   0.0000
     7 H7      -4.1477  -2.1065 -16.0477   H         1 RES1   0.0000
     8 C8      -2.1271  -2.1087 -16.7387   C.ar      1 RES1   0.0000
     9 C9      -0.7584  -3.9218 -16.0977   C.ar      1 RES1   0.0000
    10 H10      0.2005  -4.4262 -16.1329   H         1 RES1   0.0000
    11 C11     -1.6101  -5.7761 -14.6397   C.2       1 RES1   0.0000
    12 F12     -2.2837  -0.9357 -17.4105   F         1 RES1   0.0000
    13 N13     -1.2406  -7.9410 -14.1570   N.am      1 RES1   0.0000
    14 C14     -1.5106  -9.4109 -14.3092   C.3       1 RES1   0.0000
    15 H15     -1.2171  -9.7059 -15.3156   H         1 RES1   0.0000
    16 C16     -0.8997  -7.6987 -11.7768   C.3       1 RES1   0.0000
    17 H17     -1.4821  -8.4149 -11.2007   H         1 RES1   0.0000
    18 H18      0.0445  -8.1681 -12.0450   H         1 RES1   0.0000
    19 H19     -0.6847  -6.8442 -11.1386   H         1 RES1   0.0000
    20 C20     -1.7513  -5.9390 -13.3057   C.2       1 RES1   0.0000
    21 C21     -2.0254  -4.9138 -12.2663   C.ar      1 RES1   0.0000
    22 O22     -1.1751  -7.3947 -16.3880   O.2       1 RES1   0.0000
    23 C23     -1.3018  -7.0544 -15.2191   C.2       1 RES1   0.0000
    24 N24     -1.6302  -7.2794 -12.9734   N.3       1 RES1   0.0000
    25 C25     -0.9159 -11.7077 -13.4737   C.3       1 RES1   0.0000
    26 H26     -0.3412 -12.2498 -12.7242   H         1 RES1   0.0000
    27 H27     -0.6031 -12.0220 -14.4684   H         1 RES1   0.0000
    28 C28     -3.2233 -11.2475 -14.2588   C.3       1 RES1   0.0000
    29 H29     -2.9785 -11.5605 -15.2727   H         1 RES1   0.0000
    30 H30     -4.2710 -11.4637 -14.0551   H         1 RES1   0.0000
    31 C31     -2.9879  -9.7502 -14.1280   C.3       1 RES1   0.0000
    32 H32     -3.5686  -9.2307 -14.8888   H         1 RES1   0.0000
    33 H33     -3.3097  -9.4241 -13.1401   H         1 RES1   0.0000
    34 C34     -0.6731 -10.2168 -13.3155   C.3       1 RES1   0.0000
    35 H35     -0.9401  -9.9191 -12.3026   H         1 RES1   0.0000
    36 H36      0.3816 -10.0084 -13.4889   H         1 RES1   0.0000
    37 N37     -2.3708 -12.0022 -13.2938   N.4       1 RES1   1.0000
    38 H38     -2.6415 -11.7467 -12.3495   H         1 RES1   0.0000
    39 H39     -2.5224 -12.9963 -13.4320   H         1 RES1   0.0000
    40 N40     -3.1488  -5.0691 -11.5482   N.ar      1 RES1   0.0000
    41 C41     -1.5487  -2.9443 -11.0618   C.ar      1 RES1   0.0000
    42 H42     -0.8989  -2.0972 -10.8681   H         1 RES1   0.0000
    43 N43     -4.5543  -4.2769  -9.9188   N.pl3     1 RES1   0.0000
    44 H44     -4.7577  -3.5874  -9.1952   H         1 RES1   0.0000
    45 C45     -1.1781  -3.8376 -12.0468   C.ar      1 RES1   0.0000
    46 H46     -0.2689  -3.7025 -12.6231   H         1 RES1   0.0000
    47 C47     -3.4203  -4.1344 -10.6232   C.ar      1 RES1   0.0000
    48 N48     -2.6660  -3.0643 -10.3331   N.ar      1 RES1   0.0000
    49 C49     -5.4851  -5.3936 -10.0808   C.3       1 RES1   0.0000
    50 H50     -5.7952  -5.4437 -11.1361   H         1 RES1   0.0000
    51 C51     -6.7241  -5.2428  -9.2203   C.ar      1 RES1   0.0000
    52 C52     -4.7352  -6.6745  -9.7339   C.3       1 RES1   0.0000
    53 H53     -5.4236  -7.4443  -9.3914   H         1 RES1   0.0000
    54 H54     -4.2019  -7.0583 -10.6010   H         1 RES1   0.0000
    55 H55     -4.0101  -6.4930  -8.9433   H         1 RES1   0.0000
    56 C56     -8.9923  -4.9585  -7.6282   C.ar      1 RES1   0.0000
    57 H57     -9.8760  -4.8472  -7.0086   H         1 RES1   0.0000
    58 C58     -6.6489  -4.6232  -7.9811   C.ar      1 RES1   0.0000
    59 H59     -5.6950  -4.2454  -7.6280   H         1 RES1   0.0000
    60 C60     -7.9555  -5.7202  -9.6476   C.ar      1 RES1   0.0000
    61 H61     -8.0386  -6.2099 -10.6122   H         1 RES1   0.0000
    62 C62     -9.0822  -5.5778  -8.8553   C.ar      1 RES1   0.0000
    63 H63    -10.0382  -5.9553  -9.2026   H         1 RES1   0.0000
    64 C64     -7.7766  -4.4810  -7.1906   C.ar      1 RES1   0.0000
    65 H65     -7.7022  -3.9926  -6.2247   H         1 RES1   0.0000
@<TRIPOS>BOND
     1     1     5   ar
     2     1     6   ar
     3     1     2    1
     4     3     8   ar
     5     3     9   ar
     6     3     4    1
     7     5     9   ar
     8     5    11    1
     9     6     8   ar
    10     6     7    1
    11     8    12    1
    12     9    10    1
    13    11    20    2
    14    11    23    1
    15    13    14    1
    16    13    23   am
    17    13    24    1
    18    14    31    1
    19    14    34    1
    20    14    15    1
    21    16    24    1
    22    16    17    1
    23    16    18    1
    24    16    19    1
    25    20    21    1
    26    20    24    1
    27    21    40   ar
    28    21    45   ar
    29    22    23    2
    30    25    34    1
    31    25    37    1
    32    25    26    1
    33    25    27    1
    34    28    31    1
    35    28    37    1
    36    28    29    1
    37    28    30    1
    38    31    32    1
    39    31    33    1
    40    34    35    1
    41    34    36    1
    42    37    38    1
    43    37    39    1
    44    40    47   ar
    45    41    45   ar
    46    41    48   ar
    47    41    42    1
    48    43    47    1
    49    43    49    1
    50    43    44    1
    51    45    46    1
    52    47    48   ar
    53    49    51    1
    54    49    52    1
    55    49    50    1
    56    51    58   ar
    57    51    60   ar
    58    52    53    1
    59    52    54    1
    60    52    55    1
    61    56    62   ar
    62    56    64   ar
    63    56    57    1
    64    58    64   ar
    65    58    59    1
    66    60    62   ar
    67    60    61    1
    68    62    63    1
    69    64    65    1
@<TRIPOS>SUBSTRUCTURE
     1 RES1        1 GROUP             0 ****  ****    0  
@<TRIPOS>MOLECULE
LIGAND_00092
    65    69     1     0     0
SMALL
USER_CHARGES
****
Generated from the CSD

@<TRIPOS>ATOM
     1 C1      -2.4780  -4.2525 -16.4102   C.ar      1 RES1   0.0000
     2 H2      -3.1351  -5.0578 -16.7204   H         1 RES1   0.0000
     3 C3      -0.8411  -2.1730 -15.6179   C.ar      1 RES1   0.0000
     4 H4      -0.2069  -1.3491 -15.3078   H         1 RES1   0.0000
     5 C5      -1.5955  -4.4579 -15.3539   C.ar      1 RES1   0.0000
     6 C6      -2.5395  -3.0385 -17.0712   C.ar      1 RES1   0.0000
     7 H7      -3.2239  -2.8910 -17.8998   H         1 RES1   0.0000
     8 C8      -1.7190  -2.0286 -16.6541   C.ar      1 RES1   0.0000
     9 C9      -0.7799  -3.3955 -14.9746   C.ar      1 RES1   0.0000
    10 H10     -0.0762  -3.5239 -14.1600   H         1 RES1   0.0000
    11 C11     -1.5203  -5.7662 -14.6258   C.2       1 RES1   0.0000
    12 F12     -1.7779  -0.8301 -17.2960   F         1 RES1   0.0000
    13 N13     -1.3117  -7.9563 -14.1608   N.am      1 RES1   0.0000
    14 C14     -1.6601  -9.4045 -14.3549   C.3       1 RES1   0.0000
    15 H15     -1.3270  -9.7019 -15.3482   H         1 RES1   0.0000
    16 C16     -1.1012  -7.7691 -11.7605   C.3       1 RES1   0.0000
    17 H17     -1.7568  -8.4613 -11.2362   H         1 RES1   0.0000
    18 H18     -0.1693  -8.2860 -11.9800   H         1 RES1   0.0000
    19 H19     -0.8799  -6.9391 -11.0928   H         1 RES1   0.0000
    20 C20     -1.7513  -5.9390 -13.3057   C.2       1 RES1   0.0000
    21 C21     -2.0254  -4.9138 -12.2663   C.ar      1 RES1   0.0000
    22 O22     -1.0788  -7.3834 -16.3738   O.2       1 RES1   0.0000
    23 C23     -1.2551  -7.0526 -15.2086   C.2       1 RES1   0.0000
    24 N24     -1.7315  -7.2889 -12.9907   N.3       1 RES1   0.0000
    25 C25     -1.2537 -11.7454 -13.5290   C.3       1 RES1   0.0000
    26 H26     -0.7571 -12.3326 -12.7580   H         1 RES1   0.0000
    27 H27     -0.9032 -12.0635 -14.5098   H         1 RES1   0.0000
    28 C28     -3.4799 -11.1338 -14.4358   C.3       1 RES1   0.0000
    29 H29     -3.1960 -11.4462 -15.4396   H         1 RES1   0.0000
    30 H30     -4.5488 -11.2888 -14.2961   H         1 RES1   0.0000
    31 C31     -3.1632  -9.6558 -14.2645   C.3       1 RES1   0.0000
    32 H32     -3.6665  -9.0906 -15.0475   H         1 RES1   0.0000
    33 H33     -3.5216  -9.3253 -13.2907   H         1 RES1   0.0000
    34 C34     -0.9315 -10.2746 -13.3300   C.3       1 RES1   0.0000
    35 H35     -1.2385  -9.9762 -12.3286   H         1 RES1   0.0000
    36 H36      0.1421 -10.1284 -13.4392   H         1 RES1   0.0000
    37 N37     -2.7316 -11.9533 -13.4377   N.4       1 RES1   1.0000
    38 H38     -3.0408 -11.6958 -12.5059   H         1 RES1   0.0000
    39 H39     -2.9343 -12.9341 -13.6025   H         1 RES1   0.0000
    40 N40     -1.1072  -4.7783 -11.2966   N.ar      1 RES1   0.0000
    41 C41     -3.3226  -3.2287 -11.2491   C.ar      1 RES1   0.0000
    42 H42     -4.2112  -2.6061 -11.2397   H         1 RES1   0.0000
    43 N43     -0.4495  -3.7510  -9.3549   N.pl3     1 RES1   0.0000
    44 H44      0.3636  -4.3665  -9.3759   H         1 RES1   0.0000
    45 C45     -3.1749  -4.1373 -12.2777   C.ar      1 RES1   0.0000
    46 H46     -3.9235  -4.2406 -13.0562   H         1 RES1   0.0000
    47 C47     -1.3567  -3.8727 -10.3371   C.ar      1 RES1   0.0000
    48 N48     -2.4311  -3.0737 -10.2618   N.ar      1 RES1   0.0000
    49 C49     -0.5852  -2.8349  -8.2227   C.3       1 RES1   0.0000
    50 H50     -0.7299  -1.8146  -8.6102   H         1 RES1   0.0000
    51 C51      0.6362  -2.8414  -7.3245   C.ar      1 RES1   0.0000
    52 C52     -1.8326  -3.2408  -7.4465   C.3       1 RES1   0.0000
    53 H53     -1.7440  -2.9604  -6.3990   H         1 RES1   0.0000
    54 H54     -2.7173  -2.7556  -7.8535   H         1 RES1   0.0000
    55 H55     -1.9832  -4.3172  -7.4971   H         1 RES1   0.0000
    56 C56      2.8825  -2.8682  -5.6772   C.ar      1 RES1   0.0000
    57 H57      3.7578  -2.8784  -5.0362   H         1 RES1   0.0000
    58 C58      1.3716  -4.0042  -7.1454   C.ar      1 RES1   0.0000
    59 H59      1.0677  -4.9138  -7.6527   H         1 RES1   0.0000
    60 C60      1.0440  -1.6919  -6.6618   C.ar      1 RES1   0.0000
    61 H61      0.4837  -0.7710  -6.7850   H         1 RES1   0.0000
    62 C62      2.1611  -1.7066  -5.8436   C.ar      1 RES1   0.0000
    63 H63      2.4685  -0.8004  -5.3325   H         1 RES1   0.0000
    64 C64      2.4886  -4.0169  -6.3275   C.ar      1 RES1   0.0000
    65 H65      3.0546  -4.9335  -6.1988   H         1 RES1   0.0000
@<TRIPOS>BOND
     1     1     5   ar
     2     1     6   ar
     3     1     2    1
     4     3     8   ar
     5     3     9   ar
     6     3     4    1
     7     5     9   ar
     8     5    11    1
     9     6     8   ar
    10     6     7    1
    11     8    12    1
    12     9    10    1
    13    11    20    2
    14    11    23    1
    15    13    14    1
    16    13    23   am
    17    13    24    1
    18    14    31    1
    19    14    34    1
    20    14    15    1
    21    16    24    1
    22    16    17    1
    23    16    18    1
    24    16    19    1
    25    20    21    1
    26    20    24    1
    27    21    40   ar
    28    21    45   ar
    29    22    23    2
    30    25    34    1
    31    25    37    1
    32    25    26    1
    33    25    27    1
    34    28    31    1
    35    28    37    1
    36    28    29    1
    37    28    30    1
    38    31    32    1
    39    31    33    1
    40    34    35    1
    41    34    36    1
    42    37    38    1
    43    37    39    1
    44    40    47   ar
    45    41    45   ar
    46    41    48   ar
    47    41    42    1
    48    43    47    1
    49    43    49    1
    50    43    44    1
    51    45    46    1
    52    47    48   ar
    53    49    51    1
    54    49    52    1
    55    49    50    1
    56    51    58   ar
    57    51    60   ar
    58    52    53    1
    59    52    54    1
    60    52    55    1
    61    56    62   ar
    62    56    64   ar
    63    56    57    1
    64    58    64   ar
    65    58    59    1
    66    60    62   ar
    67    60    61    1
    68    62    63    1
    69    64    65    1
@<TRIPOS>SUBSTRUCTURE
     1 RES1        1 GROUP             0 ****  ****    0  
@<TRIPOS>MOLECULE
LIGAND_00093
    65    69     1     0     0
SMALL
USER_CHARGES
****
Generated from the CSD

@<TRIPOS>ATOM
     1 C1      -3.0248  -3.8117 -15.3691   C.ar      1 RES1   0.0000
     2 H2      -3.8579  -4.2218 -14.8086   H         1 RES1   0.0000
     3 C3      -0.9094  -2.7260 -16.7756   C.ar      1 RES1   0.0000
     4 H4      -0.0813  -2.2894 -17.3241   H         1 RES1   0.0000
     5 C5      -1.8085  -4.4880 -15.3803   C.ar      1 RES1   0.0000
     6 C6      -3.1929  -2.6215 -16.0545   C.ar      1 RES1   0.0000
     7 H7      -4.1477  -2.1065 -16.0477   H         1 RES1   0.0000
     8 C8      -2.1271  -2.1087 -16.7387   C.ar      1 RES1   0.0000
     9 C9      -0.7584  -3.9218 -16.0977   C.ar      1 RES1   0.0000
    10 H10      0.2005  -4.4262 -16.1329   H         1 RES1   0.0000
    11 C11     -1.6101  -5.7761 -14.6397   C.2       1 RES1   0.0000
    12 F12     -2.2837  -0.9357 -17.4105   F         1 RES1   0.0000
    13 N13     -1.2406  -7.9410 -14.1570   N.am      1 RES1   0.0000
    14 C14     -1.5106  -9.4109 -14.3092   C.3       1 RES1   0.0000
    15 H15     -1.2171  -9.7059 -15.3156   H         1 RES1   0.0000
    16 C16     -0.8997  -7.6987 -11.7768   C.3       1 RES1   0.0000
    17 H17     -1.4821  -8.4147 -11.2006   H         1 RES1   0.0000
    18 H18      0.0445  -8.1683 -12.0450   H         1 RES1   0.0000
    19 H19     -0.6846  -6.8442 -11.1387   H         1 RES1   0.0000
    20 C20     -1.7513  -5.9390 -13.3057   C.2       1 RES1   0.0000
    21 C21     -2.0254  -4.9138 -12.2663   C.ar      1 RES1   0.0000
    22 O22     -1.1751  -7.3947 -16.3880   O.2       1 RES1   0.0000
    23 C23     -1.3018  -7.0544 -15.2191   C.2       1 RES1   0.0000
    24 N24     -1.6302  -7.2794 -12.9734   N.3       1 RES1   0.0000
    25 C25     -0.9160 -11.7077 -13.4737   C.3       1 RES1   0.0000
    26 H26     -0.3413 -12.2498 -12.7242   H         1 RES1   0.0000
    27 H27     -0.6031 -12.0220 -14.4683   H         1 RES1   0.0000
    28 C28     -3.2233 -11.2475 -14.2588   C.3       1 RES1   0.0000
    29 H29     -2.9785 -11.5605 -15.2727   H         1 RES1   0.0000
    30 H30     -4.2710 -11.4637 -14.0552   H         1 RES1   0.0000
    31 C31     -2.9880  -9.7502 -14.1281   C.3       1 RES1   0.0000
    32 H32     -3.5686  -9.2307 -14.8889   H         1 RES1   0.0000
    33 H33     -3.3098  -9.4240 -13.1402   H         1 RES1   0.0000
    34 C34     -0.6731 -10.2168 -13.3154   C.3       1 RES1   0.0000
    35 H35     -0.9402  -9.9191 -12.3025   H         1 RES1   0.0000
    36 H36      0.3816 -10.0085 -13.4888   H         1 RES1   0.0000
    37 N37     -2.3708 -12.0022 -13.2938   N.4       1 RES1   1.0000
    38 H38     -2.6416 -11.7467 -12.3495   H         1 RES1   0.0000
    39 H39     -2.5225 -12.9962 -13.4320   H         1 RES1   0.0000
    40 N40     -3.1488  -5.0691 -11.5482   N.ar      1 RES1   0.0000
    41 C41     -1.5487  -2.9443 -11.0618   C.ar      1 RES1   0.0000
    42 H42     -0.8989  -2.0972 -10.8681   H         1 RES1   0.0000
    43 N43     -4.5543  -4.2769  -9.9188   N.pl3     1 RES1   0.0000
    44 H44     -5.1581  -5.0688 -10.1394   H         1 RES1   0.0000
    45 C45     -1.1781  -3.8376 -12.0468   C.ar      1 RES1   0.0000
    46 H46     -0.2689  -3.7025 -12.6231   H         1 RES1   0.0000
    47 C47     -3.4203  -4.1344 -10.6232   C.ar      1 RES1   0.0000
    48 N48     -2.6660  -3.0643 -10.3331   N.ar      1 RES1   0.0000
    49 C49     -5.0093  -3.3330  -8.8982   C.3       1 RES1   0.0000
    50 H50     -4.2143  -3.2177  -8.1453   H         1 RES1   0.0000
    51 C51     -6.2711  -3.8007  -8.1998   C.ar      1 RES1   0.0000
    52 C52     -5.2320  -1.9877  -9.5790   C.3       1 RES1   0.0000
    53 H53     -6.0160  -1.4254  -9.0761   H         1 RES1   0.0000
    54 H54     -4.3230  -1.3900  -9.5631   H         1 RES1   0.0000
    55 H55     -5.5278  -2.1266 -10.6168   H         1 RES1   0.0000
    56 C56     -8.5943  -4.6669  -6.9299   C.ar      1 RES1   0.0000
    57 H57     -9.4988  -5.0048  -6.4350   H         1 RES1   0.0000
    58 C58     -7.2254  -4.5353  -8.8889   C.ar      1 RES1   0.0000
    59 H59     -7.0650  -4.7746  -9.9349   H         1 RES1   0.0000
    60 C60     -6.5017  -3.5051  -6.8633   C.ar      1 RES1   0.0000
    61 H61     -5.7706  -2.9305  -6.3044   H         1 RES1   0.0000
    62 C62     -7.6568  -3.9366  -6.2333   C.ar      1 RES1   0.0000
    63 H63     -7.8233  -3.6986  -5.1880   H         1 RES1   0.0000
    64 C64     -8.3794  -4.9665  -8.2571   C.ar      1 RES1   0.0000
    65 H65     -9.1157  -5.5416  -8.8088   H         1 RES1   0.0000
@<TRIPOS>BOND
     1     1     5   ar
     2     1     6   ar
     3     1     2    1
     4     3     8   ar
     5     3     9   ar
     6     3     4    1
     7     5     9   ar
     8     5    11    1
     9     6     8   ar
    10     6     7    1
    11     8    12    1
    12     9    10    1
    13    11    20    2
    14    11    23    1
    15    13    14    1
    16    13    23   am
    17    13    24    1
    18    14    31    1
    19    14    34    1
    20    14    15    1
    21    16    24    1
    22    16    17    1
    23    16    18    1
    24    16    19    1
    25    20    21    1
    26    20    24    1
    27    21    40   ar
    28    21    45   ar
    29    22    23    2
    30    25    34    1
    31    25    37    1
    32    25    26    1
    33    25    27    1
    34    28    31    1
    35    28    37    1
    36    28    29    1
    37    28    30    1
    38    31    32    1
    39    31    33    1
    40    34    35    1
    41    34    36    1
    42    37    38    1
    43    37    39    1
    44    40    47   ar
    45    41    45   ar
    46    41    48   ar
    47    41    42    1
    48    43    47    1
    49    43    49    1
    50    43    44    1
    51    45    46    1
    52    47    48   ar
    53    49    51    1
    54    49    52    1
    55    49    50    1
    56    51    58   ar
    57    51    60   ar
    58    52    53    1
    59    52    54    1
    60    52    55    1
    61    56    62   ar
    62    56    64   ar
    63    56    57    1
    64    58    64   ar
    65    58    59    1
    66    60    62   ar
    67    60    61    1
    68    62    63    1
    69    64    65    1
@<TRIPOS>SUBSTRUCTURE
     1 RES1        1 GROUP             0 ****  ****    0  
@<TRIPOS>MOLECULE
LIGAND_00094
    65    69     1     0     0
SMALL
USER_CHARGES
****
Generated from the CSD

@<TRIPOS>ATOM
     1 C1      -3.0641  -4.4404 -16.2866   C.ar      1 RES1   0.0000
     2 H2      -3.6931  -5.3083 -16.4527   H         1 RES1   0.0000
     3 C3      -1.5003  -2.2042 -15.8562   C.ar      1 RES1   0.0000
     4 H4      -0.8953  -1.3195 -15.6869   H         1 RES1   0.0000
     5 C5      -2.0009  -4.5268 -15.3928   C.ar      1 RES1   0.0000
     6 C6      -3.3404  -3.2668 -16.9654   C.ar      1 RES1   0.0000
     7 H7      -4.1657  -3.2119 -17.6675   H         1 RES1   0.0000
     8 C8      -2.5503  -2.1772 -16.7290   C.ar      1 RES1   0.0000
     9 C9      -1.2265  -3.3871 -15.1944   C.ar      1 RES1   0.0000
    10 H10     -0.3864  -3.4220 -14.5102   H         1 RES1   0.0000
    11 C11     -1.6916  -5.7901 -14.6474   C.2       1 RES1   0.0000
    12 F12     -2.8196  -1.0180 -17.3889   F         1 RES1   0.0000
    13 N13     -1.1769  -7.9235 -14.1576   N.am      1 RES1   0.0000
    14 C14     -1.3727  -9.4082 -14.2755   C.3       1 RES1   0.0000
    15 H15     -1.1184  -9.7027 -15.2927   H         1 RES1   0.0000
    16 C16     -0.7220  -7.6247 -11.8029   C.3       1 RES1   0.0000
    17 H17     -1.2317  -8.3625 -11.1866   H         1 RES1   0.0000
    18 H18      0.2311  -8.0457 -12.1163   H         1 RES1   0.0000
    19 H19     -0.5209  -6.7497 -11.1885   H         1 RES1   0.0000
    20 C20     -1.7513  -5.9390 -13.3057   C.2       1 RES1   0.0000
    21 C21     -2.0254  -4.9138 -12.2663   C.ar      1 RES1   0.0000
    22 O22     -1.2624  -7.4103 -16.3957   O.2       1 RES1   0.0000
    23 C23     -1.3445  -7.0587 -15.2261   C.2       1 RES1   0.0000
    24 N24     -1.5382  -7.2653 -12.9631   N.3       1 RES1   0.0000
    25 C25     -0.6068 -11.6553 -13.4444   C.3       1 RES1   0.0000
    26 H26      0.0370 -12.1531 -12.7208   H         1 RES1   0.0000
    27 H27     -0.3315 -11.9679 -14.4506   H         1 RES1   0.0000
    28 C28     -2.9754 -11.3347 -14.1069   C.3       1 RES1   0.0000
    29 H29     -2.7691 -11.6501 -15.1286   H         1 RES1   0.0000
    30 H30     -3.9969 -11.6047 -13.8430   H         1 RES1   0.0000
    31 C31     -2.8169  -9.8250 -14.0088   C.3       1 RES1   0.0000
    32 H32     -3.4660  -9.3502 -14.7431   H         1 RES1   0.0000
    33 H33     -3.1021  -9.5012 -13.0089   H         1 RES1   0.0000
    34 C34     -0.4389 -10.1510 -13.3191   C.3       1 RES1   0.0000
    35 H35     -0.6667  -9.8522 -12.2970   H         1 RES1   0.0000
    36 H36      0.5916  -9.8880 -13.5532   H         1 RES1   0.0000
    37 N37     -2.0311 -12.0261 -13.1807   N.4       1 RES1   1.0000
    38 H38     -2.2638 -11.7708 -12.2263   H         1 RES1   0.0000
    39 H39     -2.1346 -13.0291 -13.2974   H         1 RES1   0.0000
    40 N40     -3.1488  -5.0691 -11.5482   N.ar      1 RES1   0.0000
    41 C41     -1.5487  -2.9443 -11.0618   C.ar      1 RES1   0.0000
    42 H42     -0.8989  -2.0972 -10.8681   H         1 RES1   0.0000
    43 N43     -4.5543  -4.2769  -9.9188   N.pl3     1 RES1   0.0000
    44 H44     -5.1590  -5.0678 -10.1406   H         1 RES1   0.0000
    45 C45     -1.1781  -3.8376 -12.0468   C.ar      1 RES1   0.0000
    46 H46     -0.2689  -3.7025 -12.6231   H         1 RES1   0.0000
    47 C47     -3.4203  -4.1344 -10.6232   C.ar      1 RES1   0.0000
    48 N48     -2.6660  -3.0643 -10.3331   N.ar      1 RES1   0.0000
    49 C49     -5.0081  -3.3343  -8.8965   C.3       1 RES1   0.0000
    50 H50     -4.2073  -3.2102  -8.1511   H         1 RES1   0.0000
    51 C51     -6.2596  -3.8108  -8.1856   C.ar      1 RES1   0.0000
    52 C52     -5.2484  -1.9926  -9.5787   C.3       1 RES1   0.0000
    53 H53     -5.9869  -1.4088  -9.0333   H         1 RES1   0.0000
    54 H54     -4.3288  -1.4134  -9.6293   H         1 RES1   0.0000
    55 H55     -5.6136  -2.1375 -10.5933   H         1 RES1   0.0000
    56 C56     -8.5666  -4.6868  -6.8930   C.ar      1 RES1   0.0000
    57 H57     -9.4648  -5.0286  -6.3896   H         1 RES1   0.0000
    58 C58     -7.4277  -4.0430  -8.8974   C.ar      1 RES1   0.0000
    59 H59     -7.4427  -3.8809  -9.9701   H         1 RES1   0.0000
    60 C60     -6.2674  -4.0228  -6.8138   C.ar      1 RES1   0.0000
    61 H61     -5.3663  -3.8462  -6.2359   H         1 RES1   0.0000
    62 C62     -7.4148  -4.4585  -6.1727   C.ar      1 RES1   0.0000
    63 H63     -7.4060  -4.6205  -5.1000   H         1 RES1   0.0000
    64 C64     -8.5738  -4.4794  -8.2548   C.ar      1 RES1   0.0000
    65 H65     -9.4791  -4.6582  -8.8252   H         1 RES1   0.0000
@<TRIPOS>BOND
     1     1     5   ar
     2     1     6   ar
     3     1     2    1
     4     3     8   ar
     5     3     9   ar
     6     3     4    1
     7     5     9   ar
     8     5    11    1
     9     6     8   ar
    10     6     7    1
    11     8    12    1
    12     9    10    1
    13    11    20    2
    14    11    23    1
    15    13    14    1
    16    13    23   am
    17    13    24    1
    18    14    31    1
    19    14    34    1
    20    14    15    1
    21    16    24    1
    22    16    17    1
    23    16    18    1
    24    16    19    1
    25    20    21    1
    26    20    24    1
    27    21    40   ar
    28    21    45   ar
    29    22    23    2
    30    25    34    1
    31    25    37    1
    32    25    26    1
    33    25    27    1
    34    28    31    1
    35    28    37    1
    36    28    29    1
    37    28    30    1
    38    31    32    1
    39    31    33    1
    40    34    35    1
    41    34    36    1
    42    37    38    1
    43    37    39    1
    44    40    47   ar
    45    41    45   ar
    46    41    48   ar
    47    41    42    1
    48    43    47    1
    49    43    49    1
    50    43    44    1
    51    45    46    1
    52    47    48   ar
    53    49    51    1
    54    49    52    1
    55    49    50    1
    56    51    58   ar
    57    51    60   ar
    58    52    53    1
    59    52    54    1
    60    52    55    1
    61    56    62   ar
    62    56    64   ar
    63    56    57    1
    64    58    64   ar
    65    58    59    1
    66    60    62   ar
    67    60    61    1
    68    62    63    1
    69    64    65    1
@<TRIPOS>SUBSTRUCTURE
     1 RES1        1 GROUP             0 ****  ****    0  
@<TRIPOS>MOLECULE
LIGAND_00095
    65    69     1     0     0
SMALL
USER_CHARGES
****
Generated from the CSD

@<TRIPOS>ATOM
     1 C1       0.3359  -4.0444 -15.7323   C.ar      1 RES1   0.0000
     2 H2      -0.3718  -4.4422 -16.4516   H         1 RES1   0.0000
     3 C3       2.1186  -2.9892 -13.9046   C.ar      1 RES1   0.0000
     4 H4       2.8149  -2.5644 -13.1891   H         1 RES1   0.0000
     5 C5       0.5126  -4.6946 -14.5146   C.ar      1 RES1   0.0000
     6 C6       1.0410  -2.8953 -16.0437   C.ar      1 RES1   0.0000
     7 H7       0.9036  -2.4008 -16.9995   H         1 RES1   0.0000
     8 C8       1.9135  -2.3965 -15.1178   C.ar      1 RES1   0.0000
     9 C9       1.4177  -4.1446 -13.6113   C.ar      1 RES1   0.0000
    10 H10      1.5844  -4.6299 -12.6564   H         1 RES1   0.0000
    11 C11     -0.2467  -5.9380 -14.1617   C.2       1 RES1   0.0000
    12 F12      2.6063  -1.2636 -15.4151   F         1 RES1   0.0000
    13 N13     -1.2406  -7.9410 -14.1570   N.am      1 RES1   0.0000
    14 C14     -1.5106  -9.4109 -14.3092   C.3       1 RES1   0.0000
    15 H15     -0.9491  -9.7701 -15.1704   H         1 RES1   0.0000
    16 C16     -2.9634  -7.4981 -12.4712   C.3       1 RES1   0.0000
    17 H17     -3.2161  -6.7696 -11.7036   H         1 RES1   0.0000
    18 H18     -3.7034  -7.4236 -13.2653   H         1 RES1   0.0000
    19 H19     -3.0343  -8.4914 -12.0332   H         1 RES1   0.0000
    20 C20     -1.0688  -6.0097 -13.0848   C.2       1 RES1   0.0000
    21 C21     -1.4087  -4.9383 -12.1137   C.ar      1 RES1   0.0000
    22 O22      0.2750  -7.5989 -15.8623   O.2       1 RES1   0.0000
    23 C23     -0.3156  -7.1911 -14.8707   C.2       1 RES1   0.0000
    24 N24     -1.6169  -7.2574 -12.9912   N.3       1 RES1   0.0000
    25 C25     -1.2720 -11.6680 -13.2251   C.3       1 RES1   0.0000
    26 H26     -0.9608 -12.1784 -12.3148   H         1 RES1   0.0000
    27 H27     -0.6961 -12.0463 -14.0684   H         1 RES1   0.0000
    28 C28     -3.2328 -11.2030 -14.6712   C.3       1 RES1   0.0000
    29 H29     -2.7164 -11.5797 -15.5528   H         1 RES1   0.0000
    30 H30     -4.3020 -11.3838 -14.7719   H         1 RES1   0.0000
    31 C31     -2.9887  -9.7063 -14.5509   C.3       1 RES1   0.0000
    32 H32     -3.3033  -9.2190 -15.4726   H         1 RES1   0.0000
    33 H33     -3.5708  -9.3164 -13.7172   H         1 RES1   0.0000
    34 C34     -1.0290 -10.1762 -13.0760   C.3       1 RES1   0.0000
    35 H35     -1.5671  -9.8145 -12.2011   H         1 RES1   0.0000
    36 H36      0.0378 -10.0017 -12.9440   H         1 RES1   0.0000
    37 N37     -2.7266 -11.9193 -13.4636   N.4       1 RES1   1.0000
    38 H38     -3.2498 -11.6036 -12.6531   H         1 RES1   0.0000
    39 H39     -2.8693 -12.9161 -13.5911   H         1 RES1   0.0000
    40 N40     -1.0980  -5.1692 -10.8285   N.ar      1 RES1   0.0000
    41 C41     -2.3055  -2.8456 -11.5027   C.ar      1 RES1   0.0000
    42 H42     -2.7847  -1.9129 -11.7813   H         1 RES1   0.0000
    43 N43     -1.1330  -4.4573  -8.6489   N.pl3     1 RES1   0.0000
    44 H44     -0.7432  -5.3684  -8.4074   H         1 RES1   0.0000
    45 C45     -2.0280  -3.7587 -12.5000   C.ar      1 RES1   0.0000
    46 H46     -2.2846  -3.5636 -13.5360   H         1 RES1   0.0000
    47 C47     -1.4239  -4.2187  -9.9377   C.ar      1 RES1   0.0000
    48 N48     -2.0171  -3.0474 -10.2104   N.ar      1 RES1   0.0000
    49 C49     -1.3986  -3.5164  -7.5609   C.3       1 RES1   0.0000
    50 H50     -2.2856  -2.9182  -7.8209   H         1 RES1   0.0000
    51 C51     -0.2363  -2.5746  -7.3148   C.ar      1 RES1   0.0000
    52 C52     -1.7118  -4.3311  -6.3113   C.3       1 RES1   0.0000
    53 H53     -1.9501  -3.6781  -5.4743   H         1 RES1   0.0000
    54 H54     -2.5617  -4.9889  -6.4804   H         1 RES1   0.0000
    55 H55     -0.8591  -4.9452  -6.0294   H         1 RES1   0.0000
    56 C56      1.9006  -0.8494  -6.8480   C.ar      1 RES1   0.0000
    57 H57      2.7333  -0.1780  -6.6666   H         1 RES1   0.0000
    58 C58      0.4006  -2.5503  -6.0824   C.ar      1 RES1   0.0000
    59 H59      0.0619  -3.2107  -5.2910   H         1 RES1   0.0000
    60 C60      0.2142  -1.7175  -8.3095   C.ar      1 RES1   0.0000
    61 H61     -0.2694  -1.7174  -9.2807   H         1 RES1   0.0000
    62 C62      1.2767  -0.8608  -8.0761   C.ar      1 RES1   0.0000
    63 H63      1.6185  -0.1970  -8.8632   H         1 RES1   0.0000
    64 C64      1.4633  -1.6935  -5.8511   C.ar      1 RES1   0.0000
    65 H65      1.9524  -1.6873  -4.8827   H         1 RES1   0.0000
@<TRIPOS>BOND
     1     1     5   ar
     2     1     6   ar
     3     1     2    1
     4     3     8   ar
     5     3     9   ar
     6     3     4    1
     7     5     9   ar
     8     5    11    1
     9     6     8   ar
    10     6     7    1
    11     8    12    1
    12     9    10    1
    13    11    20    2
    14    11    23    1
    15    13    14    1
    16    13    23   am
    17    13    24    1
    18    14    31    1
    19    14    34    1
    20    14    15    1
    21    16    24    1
    22    16    17    1
    23    16    18    1
    24    16    19    1
    25    20    21    1
    26    20    24    1
    27    21    40   ar
    28    21    45   ar
    29    22    23    2
    30    25    34    1
    31    25    37    1
    32    25    26    1
    33    25    27    1
    34    28    31    1
    35    28    37    1
    36    28    29    1
    37    28    30    1
    38    31    32    1
    39    31    33    1
    40    34    35    1
    41    34    36    1
    42    37    38    1
    43    37    39    1
    44    40    47   ar
    45    41    45   ar
    46    41    48   ar
    47    41    42    1
    48    43    47    1
    49    43    49    1
    50    43    44    1
    51    45    46    1
    52    47    48   ar
    53    49    51    1
    54    49    52    1
    55    49    50    1
    56    51    58   ar
    57    51    60   ar
    58    52    53    1
    59    52    54    1
    60    52    55    1
    61    56    62   ar
    62    56    64   ar
    63    56    57    1
    64    58    64   ar
    65    58    59    1
    66    60    62   ar
    67    60    61    1
    68    62    63    1
    69    64    65    1
@<TRIPOS>SUBSTRUCTURE
     1 RES1        1 GROUP             0 ****  ****    0  
@<TRIPOS>MOLECULE
LIGAND_00096
    65    69     1     0     0
SMALL
USER_CHARGES
****
Generated from the CSD

@<TRIPOS>ATOM
     1 C1      -0.6994  -4.2982 -11.5265   C.ar      1 RES1   0.0000
     2 H2      -0.1323  -5.0965 -11.0599   H         1 RES1   0.0000
     3 C3      -2.1079  -2.2360 -12.7076   C.ar      1 RES1   0.0000
     4 H4      -2.6530  -1.4188 -13.1683   H         1 RES1   0.0000
     5 C5      -1.2881  -4.5128 -12.7691   C.ar      1 RES1   0.0000
     6 C6      -0.8173  -3.0836 -10.8742   C.ar      1 RES1   0.0000
     7 H7      -0.3629  -2.9290  -9.9013   H         1 RES1   0.0000
     8 C8      -1.5180  -2.0824 -11.4854   C.ar      1 RES1   0.0000
     9 C9      -1.9941  -3.4590 -13.3427   C.ar      1 RES1   0.0000
    10 H10     -2.4708  -3.5947 -14.3068   H         1 RES1   0.0000
    11 C11     -1.1659  -5.8217 -13.4895   C.2       1 RES1   0.0000
    12 F12     -1.6334  -0.8834 -10.8522   F         1 RES1   0.0000
    13 N13     -1.2406  -7.9410 -14.1570   N.am      1 RES1   0.0000
    14 C14     -1.5106  -9.4109 -14.3092   C.3       1 RES1   0.0000
    15 H15     -1.1038  -9.7317 -15.2671   H         1 RES1   0.0000
    16 C16     -0.3252  -7.6743 -16.4955   C.3       1 RES1   0.0000
    17 H17      0.2025  -6.9228 -17.0792   H         1 RES1   0.0000
    18 H18      0.2938  -8.5681 -16.4557   H         1 RES1   0.0000
    19 H19     -1.2474  -7.9231 -17.0165   H         1 RES1   0.0000
    20 C20     -0.5870  -5.9122 -14.7311   C.2       1 RES1   0.0000
    21 C21      0.0604  -4.8376 -15.5265   C.ar      1 RES1   0.0000
    22 O22     -2.1510  -7.5590 -12.1278   O.2       1 RES1   0.0000
    23 C23     -1.5821  -7.1365 -13.1259   C.2       1 RES1   0.0000
    24 N24     -0.6101  -7.1788 -15.1485   N.pl3     1 RES1   0.0000
    25 C25     -1.0506 -11.6947 -13.3607   C.3       1 RES1   0.0000
    26 H26     -0.5764 -12.2260 -12.5368   H         1 RES1   0.0000
    27 H27     -0.6262 -12.0348 -14.3041   H         1 RES1   0.0000
    28 C28     -3.2420 -11.2269 -14.4242   C.3       1 RES1   0.0000
    29 H29     -2.8828 -11.5654 -15.3950   H         1 RES1   0.0000
    30 H30     -4.3093 -11.4269 -14.3421   H         1 RES1   0.0000
    31 C31     -3.0035  -9.7298 -14.2980   C.3       1 RES1   0.0000
    32 H32     -3.4826  -9.2212 -15.1333   H         1 RES1   0.0000
    33 H33     -3.4358  -9.3779 -13.3625   H         1 RES1   0.0000
    34 C34     -0.8080 -10.2034 -13.2061   C.3       1 RES1   0.0000
    35 H35     -1.1894  -9.8800 -12.2387   H         1 RES1   0.0000
    36 H36      0.2626 -10.0106 -13.2572   H         1 RES1   0.0000
    37 N37     -2.5204 -11.9690 -13.3489   N.4       1 RES1   1.0000
    38 H38     -2.8978 -11.6893 -12.4492   H         1 RES1   0.0000
    39 H39     -2.6681 -12.9642 -13.4832   H         1 RES1   0.0000
    40 N40     -0.4745  -4.5722 -16.7286   N.ar      1 RES1   0.0000
    41 C41      1.6905  -3.1773 -15.9048   C.ar      1 RES1   0.0000
    42 H42      2.5557  -2.6175 -15.5653   H         1 RES1   0.0000
    43 N43     -0.4029  -3.3687 -18.6792   N.pl3     1 RES1   0.0000
    44 H44     -1.1834  -3.9453 -18.9934   H         1 RES1   0.0000
    45 C45      1.1705  -4.1438 -15.0676   C.ar      1 RES1   0.0000
    46 H46      1.6110  -4.3522 -14.0982   H         1 RES1   0.0000
    47 C47      0.1180  -3.6205 -17.4677   C.ar      1 RES1   0.0000
    48 N48      1.1874  -2.8931 -17.1131   N.ar      1 RES1   0.0000
    49 C49      0.1189  -2.3613 -19.6025   C.3       1 RES1   0.0000
    50 H50      0.6174  -1.5723 -19.0183   H         1 RES1   0.0000
    51 C51     -0.9725  -1.7248 -20.4405   C.ar      1 RES1   0.0000
    52 C52      1.1578  -3.0396 -20.4879   C.3       1 RES1   0.0000
    53 H53      1.6044  -2.3251 -21.1761   H         1 RES1   0.0000
    54 H54      1.9540  -3.4748 -19.8874   H         1 RES1   0.0000
    55 H55      0.7024  -3.8350 -21.0742   H         1 RES1   0.0000
    56 C56     -2.9858  -0.5687 -21.9802   C.ar      1 RES1   0.0000
    57 H57     -3.7701  -0.1181 -22.5792   H         1 RES1   0.0000
    58 C58     -2.0784  -2.4642 -20.8344   C.ar      1 RES1   0.0000
    59 H59     -2.1597  -3.5053 -20.5396   H         1 RES1   0.0000
    60 C60     -0.8909  -0.3960 -20.8333   C.ar      1 RES1   0.0000
    61 H61     -0.0347   0.2017 -20.5388   H         1 RES1   0.0000
    62 C62     -1.8926   0.1774 -21.5983   C.ar      1 RES1   0.0000
    63 H63     -1.8157   1.2175 -21.8975   H         1 RES1   0.0000
    64 C64     -3.0794  -1.8890 -21.5987   C.ar      1 RES1   0.0000
    65 H65     -3.9390  -2.4796 -21.8976   H         1 RES1   0.0000
@<TRIPOS>BOND
     1     1     5   ar
     2     1     6   ar
     3     1     2    1
     4     3     8   ar
     5     3     9   ar
     6     3     4    1
     7     5     9   ar
     8     5    11    1
     9     6     8   ar
    10     6     7    1
    11     8    12    1
    12     9    10    1
    13    11    20    2
    14    11    23    1
    15    13    14    1
    16    13    23   am
    17    13    24    1
    18    14    31    1
    19    14    34    1
    20    14    15    1
    21    16    24    1
    22    16    17    1
    23    16    18    1
    24    16    19    1
    25    20    21    1
    26    20    24    1
    27    21    40   ar
    28    21    45   ar
    29    22    23    2
    30    25    34    1
    31    25    37    1
    32    25    26    1
    33    25    27    1
    34    28    31    1
    35    28    37    1
    36    28    29    1
    37    28    30    1
    38    31    32    1
    39    31    33    1
    40    34    35    1
    41    34    36    1
    42    37    38    1
    43    37    39    1
    44    40    47   ar
    45    41    45   ar
    46    41    48   ar
    47    41    42    1
    48    43    47    1
    49    43    49    1
    50    43    44    1
    51    45    46    1
    52    47    48   ar
    53    49    51    1
    54    49    52    1
    55    49    50    1
    56    51    58   ar
    57    51    60   ar
    58    52    53    1
    59    52    54    1
    60    52    55    1
    61    56    62   ar
    62    56    64   ar
    63    56    57    1
    64    58    64   ar
    65    58    59    1
    66    60    62   ar
    67    60    61    1
    68    62    63    1
    69    64    65    1
@<TRIPOS>SUBSTRUCTURE
     1 RES1        1 GROUP             0 ****  ****    0  
@<TRIPOS>MOLECULE
LIGAND_00097
    65    69     1     0     0
SMALL
USER_CHARGES
****
Generated from the CSD

@<TRIPOS>ATOM
     1 C1      -0.6994  -4.2982 -11.5265   C.ar      1 RES1   0.0000
     2 H2      -0.1323  -5.0965 -11.0599   H         1 RES1   0.0000
     3 C3      -2.1079  -2.2360 -12.7076   C.ar      1 RES1   0.0000
     4 H4      -2.6530  -1.4188 -13.1683   H         1 RES1   0.0000
     5 C5      -1.2881  -4.5128 -12.7691   C.ar      1 RES1   0.0000
     6 C6      -0.8173  -3.0836 -10.8742   C.ar      1 RES1   0.0000
     7 H7      -0.3629  -2.9290  -9.9013   H         1 RES1   0.0000
     8 C8      -1.5180  -2.0824 -11.4854   C.ar      1 RES1   0.0000
     9 C9      -1.9941  -3.4590 -13.3427   C.ar      1 RES1   0.0000
    10 H10     -2.4708  -3.5947 -14.3068   H         1 RES1   0.0000
    11 C11     -1.1659  -5.8217 -13.4895   C.2       1 RES1   0.0000
    12 F12     -1.6334  -0.8834 -10.8522   F         1 RES1   0.0000
    13 N13     -1.2406  -7.9410 -14.1570   N.am      1 RES1   0.0000
    14 C14     -1.5106  -9.4109 -14.3092   C.3       1 RES1   0.0000
    15 H15     -1.1037  -9.7317 -15.2671   H         1 RES1   0.0000
    16 C16     -0.3252  -7.6743 -16.4955   C.3       1 RES1   0.0000
    17 H17      0.1871  -6.9165 -17.0847   H         1 RES1   0.0000
    18 H18      0.3081  -8.5581 -16.4563   H         1 RES1   0.0000
    19 H19     -1.2463  -7.9393 -17.0103   H         1 RES1   0.0000
    20 C20     -0.5870  -5.9122 -14.7311   C.2       1 RES1   0.0000
    21 C21      0.0604  -4.8376 -15.5265   C.ar      1 RES1   0.0000
    22 O22     -2.1510  -7.5590 -12.1278   O.2       1 RES1   0.0000
    23 C23     -1.5821  -7.1365 -13.1259   C.2       1 RES1   0.0000
    24 N24     -0.6101  -7.1788 -15.1485   N.pl3     1 RES1   0.0000
    25 C25     -1.0506 -11.6947 -13.3607   C.3       1 RES1   0.0000
    26 H26     -0.5764 -12.2260 -12.5368   H         1 RES1   0.0000
    27 H27     -0.6262 -12.0348 -14.3041   H         1 RES1   0.0000
    28 C28     -3.2420 -11.2269 -14.4242   C.3       1 RES1   0.0000
    29 H29     -2.8828 -11.5654 -15.3950   H         1 RES1   0.0000
    30 H30     -4.3093 -11.4269 -14.3421   H         1 RES1   0.0000
    31 C31     -3.0035  -9.7298 -14.2980   C.3       1 RES1   0.0000
    32 H32     -3.4826  -9.2212 -15.1333   H         1 RES1   0.0000
    33 H33     -3.4358  -9.3779 -13.3625   H         1 RES1   0.0000
    34 C34     -0.8080 -10.2034 -13.2061   C.3       1 RES1   0.0000
    35 H35     -1.1894  -9.8800 -12.2387   H         1 RES1   0.0000
    36 H36      0.2625 -10.0106 -13.2571   H         1 RES1   0.0000
    37 N37     -2.5204 -11.9690 -13.3490   N.4       1 RES1   1.0000
    38 H38     -2.8978 -11.6893 -12.4492   H         1 RES1   0.0000
    39 H39     -2.6681 -12.9642 -13.4832   H         1 RES1   0.0000
    40 N40     -0.4745  -4.5722 -16.7286   N.ar      1 RES1   0.0000
    41 C41      1.6905  -3.1773 -15.9048   C.ar      1 RES1   0.0000
    42 H42      2.5557  -2.6175 -15.5653   H         1 RES1   0.0000
    43 N43     -0.4029  -3.3687 -18.6792   N.pl3     1 RES1   0.0000
    44 H44      0.0075  -2.6137 -19.2287   H         1 RES1   0.0000
    45 C45      1.1705  -4.1438 -15.0676   C.ar      1 RES1   0.0000
    46 H46      1.6110  -4.3522 -14.0982   H         1 RES1   0.0000
    47 C47      0.1180  -3.6205 -17.4677   C.ar      1 RES1   0.0000
    48 N48      1.1874  -2.8931 -17.1131   N.ar      1 RES1   0.0000
    49 C49     -1.5621  -4.0671 -19.2342   C.3       1 RES1   0.0000
    50 H50     -1.6198  -5.0692 -18.7817   H         1 RES1   0.0000
    51 C51     -1.4772  -4.2216 -20.7400   C.ar      1 RES1   0.0000
    52 C52     -2.8077  -3.2831 -18.8379   C.3       1 RES1   0.0000
    53 H53     -3.7067  -3.7780 -19.1991   H         1 RES1   0.0000
    54 H54     -2.8815  -3.1937 -17.7561   H         1 RES1   0.0000
    55 H55     -2.7808  -2.2804 -19.2594   H         1 RES1   0.0000
    56 C56     -1.3138  -4.4920 -23.5078   C.ar      1 RES1   0.0000
    57 H57     -1.2496  -4.5978 -24.5857   H         1 RES1   0.0000
    58 C58     -0.8682  -3.2446 -21.5143   C.ar      1 RES1   0.0000
    59 H59     -0.4511  -2.3646 -21.0359   H         1 RES1   0.0000
    60 C60     -2.0057  -5.3362 -21.3766   C.ar      1 RES1   0.0000
    61 H61     -2.4883  -6.1126 -20.7922   H         1 RES1   0.0000
    62 C62     -1.9234  -5.4695 -22.7524   C.ar      1 RES1   0.0000
    63 H63     -2.3403  -6.3464 -23.2363   H         1 RES1   0.0000
    64 C64     -0.7861  -3.3798 -22.8897   C.ar      1 RES1   0.0000
    65 H65     -0.3052  -2.6081 -23.4815   H         1 RES1   0.0000
@<TRIPOS>BOND
     1     1     5   ar
     2     1     6   ar
     3     1     2    1
     4     3     8   ar
     5     3     9   ar
     6     3     4    1
     7     5     9   ar
     8     5    11    1
     9     6     8   ar
    10     6     7    1
    11     8    12    1
    12     9    10    1
    13    11    20    2
    14    11    23    1
    15    13    14    1
    16    13    23   am
    17    13    24    1
    18    14    31    1
    19    14    34    1
    20    14    15    1
    21    16    24    1
    22    16    17    1
    23    16    18    1
    24    16    19    1
    25    20    21    1
    26    20    24    1
    27    21    40   ar
    28    21    45   ar
    29    22    23    2
    30    25    34    1
    31    25    37    1
    32    25    26    1
    33    25    27    1
    34    28    31    1
    35    28    37    1
    36    28    29    1
    37    28    30    1
    38    31    32    1
    39    31    33    1
    40    34    35    1
    41    34    36    1
    42    37    38    1
    43    37    39    1
    44    40    47   ar
    45    41    45   ar
    46    41    48   ar
    47    41    42    1
    48    43    47    1
    49    43    49    1
    50    43    44    1
    51    45    46    1
    52    47    48   ar
    53    49    51    1
    54    49    52    1
    55    49    50    1
    56    51    58   ar
    57    51    60   ar
    58    52    53    1
    59    52    54    1
    60    52    55    1
    61    56    62   ar
    62    56    64   ar
    63    56    57    1
    64    58    64   ar
    65    58    59    1
    66    60    62   ar
    67    60    61    1
    68    62    63    1
    69    64    65    1
@<TRIPOS>SUBSTRUCTURE
     1 RES1        1 GROUP             0 ****  ****    0  
@<TRIPOS>MOLECULE
LIGAND_00098
    65    69     1     0     0
SMALL
USER_CHARGES
****
Generated from the CSD

@<TRIPOS>ATOM
     1 C1      -0.1734  -3.7512 -12.4311   C.ar      1 RES1   0.0000
     2 H2       0.8163  -4.1080 -12.6950   H         1 RES1   0.0000
     3 C3      -2.6840  -2.8012 -11.7784   C.ar      1 RES1   0.0000
     4 H4      -3.6669  -2.4178 -11.5253   H         1 RES1   0.0000
     5 C5      -1.2881  -4.5128 -12.7691   C.ar      1 RES1   0.0000
     6 C6      -0.3010  -2.5429 -11.7691   C.ar      1 RES1   0.0000
     7 H7       0.5745  -1.9608 -11.5013   H         1 RES1   0.0000
     8 C8      -1.5563  -2.0986 -11.4624   C.ar      1 RES1   0.0000
     9 C9      -2.5420  -4.0138 -12.4278   C.ar      1 RES1   0.0000
    10 H10     -3.4308  -4.5851 -12.6702   H         1 RES1   0.0000
    11 C11     -1.1659  -5.8217 -13.4895   C.2       1 RES1   0.0000
    12 F12     -1.6896  -0.9084 -10.8162   F         1 RES1   0.0000
    13 N13     -1.2406  -7.9410 -14.1570   N.am      1 RES1   0.0000
    14 C14     -1.5106  -9.4109 -14.3092   C.3       1 RES1   0.0000
    15 H15     -1.1038  -9.7317 -15.2671   H         1 RES1   0.0000
    16 C16     -0.3252  -7.6743 -16.4955   C.3       1 RES1   0.0000
    17 H17      0.2025  -6.9228 -17.0792   H         1 RES1   0.0000
    18 H18      0.2938  -8.5681 -16.4557   H         1 RES1   0.0000
    19 H19     -1.2474  -7.9231 -17.0165   H         1 RES1   0.0000
    20 C20     -0.5870  -5.9122 -14.7311   C.2       1 RES1   0.0000
    21 C21      0.0604  -4.8376 -15.5265   C.ar      1 RES1   0.0000
    22 O22     -2.1510  -7.5590 -12.1278   O.2       1 RES1   0.0000
    23 C23     -1.5821  -7.1365 -13.1259   C.2       1 RES1   0.0000
    24 N24     -0.6101  -7.1788 -15.1485   N.pl3     1 RES1   0.0000
    25 C25     -1.0506 -11.6947 -13.3607   C.3       1 RES1   0.0000
    26 H26     -0.5764 -12.2260 -12.5368   H         1 RES1   0.0000
    27 H27     -0.6262 -12.0348 -14.3041   H         1 RES1   0.0000
    28 C28     -3.2420 -11.2269 -14.4242   C.3       1 RES1   0.0000
    29 H29     -2.8828 -11.5654 -15.3950   H         1 RES1   0.0000
    30 H30     -4.3093 -11.4269 -14.3421   H         1 RES1   0.0000
    31 C31     -3.0035  -9.7298 -14.2980   C.3       1 RES1   0.0000
    32 H32     -3.4826  -9.2212 -15.1333   H         1 RES1   0.0000
    33 H33     -3.4358  -9.3779 -13.3625   H         1 RES1   0.0000
    34 C34     -0.8080 -10.2034 -13.2061   C.3       1 RES1   0.0000
    35 H35     -1.1894  -9.8800 -12.2387   H         1 RES1   0.0000
    36 H36      0.2626 -10.0106 -13.2572   H         1 RES1   0.0000
    37 N37     -2.5204 -11.9690 -13.3489   N.4       1 RES1   1.0000
    38 H38     -2.8978 -11.6893 -12.4492   H         1 RES1   0.0000
    39 H39     -2.6681 -12.9642 -13.4832   H         1 RES1   0.0000
    40 N40      1.3518  -5.0181 -15.8447   N.ar      1 RES1   0.0000
    41 C41      0.0944  -2.7605 -16.6407   C.ar      1 RES1   0.0000
    42 H42     -0.4181  -1.8597 -16.9618   H         1 RES1   0.0000
    43 N43      3.2523  -4.2108 -16.8421   N.pl3     1 RES1   0.0000
    44 H44      3.7217  -5.0422 -16.4832   H         1 RES1   0.0000
    45 C45     -0.6202  -3.6935 -15.9166   C.ar      1 RES1   0.0000
    46 H46     -1.6635  -3.5377 -15.6629   H         1 RES1   0.0000
    47 C47      1.9548  -4.0414 -16.5414   C.ar      1 RES1   0.0000
    48 N48      1.3851  -2.9047 -16.9677   N.ar      1 RES1   0.0000
    49 C49      4.0509  -3.2470 -17.5988   C.3       1 RES1   0.0000
    50 H50      3.3805  -2.6741 -18.2580   H         1 RES1   0.0000
    51 C51      5.1098  -3.9172 -18.4520   C.ar      1 RES1   0.0000
    52 C52      4.6858  -2.2869 -16.5996   C.3       1 RES1   0.0000
    53 H53      5.2684  -1.5248 -17.1128   H         1 RES1   0.0000
    54 H54      3.9242  -1.7875 -16.0043   H         1 RES1   0.0000
    55 H55      5.3490  -2.8207 -15.9221   H         1 RES1   0.0000
    56 C56      7.0571  -5.1599 -20.0091   C.ar      1 RES1   0.0000
    57 H57      7.8149  -5.6441 -20.6159   H         1 RES1   0.0000
    58 C58      5.7257  -5.0836 -18.0215   C.ar      1 RES1   0.0000
    59 H59      5.4457  -5.5164 -17.0668   H         1 RES1   0.0000
    60 C60      5.4881  -3.3821 -19.6757   C.ar      1 RES1   0.0000
    61 H61      5.0218  -2.4697 -20.0324   H         1 RES1   0.0000
    62 C62      6.4559  -4.0010 -20.4487   C.ar      1 RES1   0.0000
    63 H63      6.7411  -3.5717 -21.4034   H         1 RES1   0.0000
    64 C64      6.6926  -5.7015 -18.7961   C.ar      1 RES1   0.0000
    65 H65      7.1639  -6.6141 -18.4468   H         1 RES1   0.0000
@<TRIPOS>BOND
     1     1     5   ar
     2     1     6   ar
     3     1     2    1
     4     3     8   ar
     5     3     9   ar
     6     3     4    1
     7     5     9   ar
     8     5    11    1
     9     6     8   ar
    10     6     7    1
    11     8    12    1
    12     9    10    1
    13    11    20    2
    14    11    23    1
    15    13    14    1
    16    13    23   am
    17    13    24    1
    18    14    31    1
    19    14    34    1
    20    14    15    1
    21    16    24    1
    22    16    17    1
    23    16    18    1
    24    16    19    1
    25    20    21    1
    26    20    24    1
    27    21    40   ar
    28    21    45   ar
    29    22    23    2
    30    25    34    1
    31    25    37    1
    32    25    26    1
    33    25    27    1
    34    28    31    1
    35    28    37    1
    36    28    29    1
    37    28    30    1
    38    31    32    1
    39    31    33    1
    40    34    35    1
    41    34    36    1
    42    37    38    1
    43    37    39    1
    44    40    47   ar
    45    41    45   ar
    46    41    48   ar
    47    41    42    1
    48    43    47    1
    49    43    49    1
    50    43    44    1
    51    45    46    1
    52    47    48   ar
    53    49    51    1
    54    49    52    1
    55    49    50    1
    56    51    58   ar
    57    51    60   ar
    58    52    53    1
    59    52    54    1
    60    52    55    1
    61    56    62   ar
    62    56    64   ar
    63    56    57    1
    64    58    64   ar
    65    58    59    1
    66    60    62   ar
    67    60    61    1
    68    62    63    1
    69    64    65    1
@<TRIPOS>SUBSTRUCTURE
     1 RES1        1 GROUP             0 ****  ****    0  
@<TRIPOS>MOLECULE
LIGAND_00099
    65    69     1     0     0
SMALL
USER_CHARGES
****
Generated from the CSD

@<TRIPOS>ATOM
     1 C1      -0.1734  -3.7512 -12.4311   C.ar      1 RES1   0.0000
     2 H2       0.8163  -4.1080 -12.6950   H         1 RES1   0.0000
     3 C3      -2.6840  -2.8012 -11.7784   C.ar      1 RES1   0.0000
     4 H4      -3.6669  -2.4178 -11.5253   H         1 RES1   0.0000
     5 C5      -1.2881  -4.5128 -12.7691   C.ar      1 RES1   0.0000
     6 C6      -0.3010  -2.5429 -11.7691   C.ar      1 RES1   0.0000
     7 H7       0.5745  -1.9608 -11.5013   H         1 RES1   0.0000
     8 C8      -1.5563  -2.0986 -11.4624   C.ar      1 RES1   0.0000
     9 C9      -2.5420  -4.0138 -12.4278   C.ar      1 RES1   0.0000
    10 H10     -3.4308  -4.5851 -12.6702   H         1 RES1   0.0000
    11 C11     -1.1659  -5.8217 -13.4895   C.2       1 RES1   0.0000
    12 F12     -1.6896  -0.9084 -10.8162   F         1 RES1   0.0000
    13 N13     -1.2406  -7.9410 -14.1570   N.am      1 RES1   0.0000
    14 C14     -1.5106  -9.4109 -14.3092   C.3       1 RES1   0.0000
    15 H15     -1.1037  -9.7317 -15.2671   H         1 RES1   0.0000
    16 C16     -0.3252  -7.6743 -16.4955   C.3       1 RES1   0.0000
    17 H17      0.1871  -6.9165 -17.0847   H         1 RES1   0.0000
    18 H18      0.3081  -8.5581 -16.4563   H         1 RES1   0.0000
    19 H19     -1.2463  -7.9393 -17.0103   H         1 RES1   0.0000
    20 C20     -0.5870  -5.9122 -14.7311   C.2       1 RES1   0.0000
    21 C21      0.0604  -4.8376 -15.5265   C.ar      1 RES1   0.0000
    22 O22     -2.1510  -7.5590 -12.1278   O.2       1 RES1   0.0000
    23 C23     -1.5821  -7.1365 -13.1259   C.2       1 RES1   0.0000
    24 N24     -0.6101  -7.1788 -15.1485   N.pl3     1 RES1   0.0000
    25 C25     -1.0506 -11.6947 -13.3607   C.3       1 RES1   0.0000
    26 H26     -0.5764 -12.2260 -12.5368   H         1 RES1   0.0000
    27 H27     -0.6262 -12.0348 -14.3041   H         1 RES1   0.0000
    28 C28     -3.2420 -11.2269 -14.4242   C.3       1 RES1   0.0000
    29 H29     -2.8828 -11.5654 -15.3950   H         1 RES1   0.0000
    30 H30     -4.3093 -11.4269 -14.3421   H         1 RES1   0.0000
    31 C31     -3.0035  -9.7298 -14.2980   C.3       1 RES1   0.0000
    32 H32     -3.4826  -9.2212 -15.1333   H         1 RES1   0.0000
    33 H33     -3.4358  -9.3779 -13.3625   H         1 RES1   0.0000
    34 C34     -0.8080 -10.2034 -13.2061   C.3       1 RES1   0.0000
    35 H35     -1.1894  -9.8800 -12.2387   H         1 RES1   0.0000
    36 H36      0.2625 -10.0106 -13.2571   H         1 RES1   0.0000
    37 N37     -2.5204 -11.9690 -13.3489   N.4       1 RES1   1.0000
    38 H38     -2.8978 -11.6893 -12.4492   H         1 RES1   0.0000
    39 H39     -2.6681 -12.9642 -13.4832   H         1 RES1   0.0000
    40 N40      1.3518  -5.0181 -15.8447   N.ar      1 RES1   0.0000
    41 C41      0.0944  -2.7605 -16.6407   C.ar      1 RES1   0.0000
    42 H42     -0.4181  -1.8597 -16.9618   H         1 RES1   0.0000
    43 N43      3.2523  -4.2108 -16.8421   N.pl3     1 RES1   0.0000
    44 H44      3.7075  -3.4994 -17.4138   H         1 RES1   0.0000
    45 C45     -0.6202  -3.6935 -15.9166   C.ar      1 RES1   0.0000
    46 H46     -1.6635  -3.5377 -15.6629   H         1 RES1   0.0000
    47 C47      1.9548  -4.0414 -16.5414   C.ar      1 RES1   0.0000
    48 N48      1.3851  -2.9047 -16.9677   N.ar      1 RES1   0.0000
    49 C49      4.0372  -5.3826 -16.4543   C.3       1 RES1   0.0000
    50 H50      3.5985  -5.8144 -15.5414   H         1 RES1   0.0000
    51 C51      5.4880  -5.0405 -16.1775   C.ar      1 RES1   0.0000
    52 C52      3.9253  -6.4065 -17.5778   C.3       1 RES1   0.0000
    53 H53      4.4669  -7.3161 -17.3268   H         1 RES1   0.0000
    54 H54      2.8856  -6.6705 -17.7595   H         1 RES1   0.0000
    55 H55      4.3403  -6.0097 -18.5020   H         1 RES1   0.0000
    56 C56      8.1533  -4.4009 -15.6796   C.ar      1 RES1   0.0000
    57 H57      9.1911  -4.1514 -15.4851   H         1 RES1   0.0000
    58 C58      6.1221  -4.0339 -16.8915   C.ar      1 RES1   0.0000
    59 H59      5.5733  -3.4899 -17.6530   H         1 RES1   0.0000
    60 C60      6.2131  -5.7235 -15.2107   C.ar      1 RES1   0.0000
    61 H61      5.7391  -6.5158 -14.6409   H         1 RES1   0.0000
    62 C62      7.5378  -5.4043 -14.9641   C.ar      1 RES1   0.0000
    63 H63      8.0919  -5.9462 -14.2050   H         1 RES1   0.0000
    64 C64      7.4464  -3.7155 -16.6430   C.ar      1 RES1   0.0000
    65 H65      7.9279  -2.9246 -17.2083   H         1 RES1   0.0000
@<TRIPOS>BOND
     1     1     5   ar
     2     1     6   ar
     3     1     2    1
     4     3     8   ar
     5     3     9   ar
     6     3     4    1
     7     5     9   ar
     8     5    11    1
     9     6     8   ar
    10     6     7    1
    11     8    12    1
    12     9    10    1
    13    11    20    2
    14    11    23    1
    15    13    14    1
    16    13    23   am
    17    13    24    1
    18    14    31    1
    19    14    34    1
    20    14    15    1
    21    16    24    1
    22    16    17    1
    23    16    18    1
    24    16    19    1
    25    20    21    1
    26    20    24    1
    27    21    40   ar
    28    21    45   ar
    29    22    23    2
    30    25    34    1
    31    25    37    1
    32    25    26    1
    33    25    27    1
    34    28    31    1
    35    28    37    1
    36    28    29    1
    37    28    30    1
    38    31    32    1
    39    31    33    1
    40    34    35    1
    41    34    36    1
    42    37    38    1
    43    37    39    1
    44    40    47   ar
    45    41    45   ar
    46    41    48   ar
    47    41    42    1
    48    43    47    1
    49    43    49    1
    50    43    44    1
    51    45    46    1
    52    47    48   ar
    53    49    51    1
    54    49    52    1
    55    49    50    1
    56    51    58   ar
    57    51    60   ar
    58    52    53    1
    59    52    54    1
    60    52    55    1
    61    56    62   ar
    62    56    64   ar
    63    56    57    1
    64    58    64   ar
    65    58    59    1
    66    60    62   ar
    67    60    61    1
    68    62    63    1
    69    64    65    1
@<TRIPOS>SUBSTRUCTURE
     1 RES1        1 GROUP             0 ****  ****    0  
@<TRIPOS>MOLECULE
LIGAND_00100
    65    69     1     0     0
SMALL
USER_CHARGES
****
Generated from the CSD

@<TRIPOS>ATOM
     1 C1      -0.4435  -3.6869 -12.4155   C.ar      1 RES1   0.0000
     2 H2       0.5772  -4.0370 -12.5252   H         1 RES1   0.0000
     3 C3      -3.0309  -2.7546 -12.1550   C.ar      1 RES1   0.0000
     4 H4      -4.0437  -2.3781 -12.0559   H         1 RES1   0.0000
     5 C5      -1.4912  -4.4747 -12.8830   C.ar      1 RES1   0.0000
     6 C6      -0.6761  -2.4611 -11.8173   C.ar      1 RES1   0.0000
     7 H7       0.1466  -1.8584 -11.4472   H         1 RES1   0.0000
     8 C8      -1.9667  -2.0263 -11.7055   C.ar      1 RES1   0.0000
     9 C9      -2.7859  -3.9841 -12.7386   C.ar      1 RES1   0.0000
    10 H10     -3.6254  -4.5755 -13.0857   H         1 RES1   0.0000
    11 C11     -1.2547  -5.8030 -13.5365   C.2       1 RES1   0.0000
    12 F12     -2.2024  -0.8191 -11.1232   F         1 RES1   0.0000
    13 N13     -1.1781  -7.9481 -14.1157   N.am      1 RES1   0.0000
    14 C14     -1.3639  -9.4349 -14.2223   C.3       1 RES1   0.0000
    15 H15     -0.8755  -9.7718 -15.1354   H         1 RES1   0.0000
    16 C16     -0.1164  -7.7266 -16.3963   C.3       1 RES1   0.0000
    17 H17      0.6097  -7.0716 -16.8734   H         1 RES1   0.0000
    18 H18      0.3350  -8.7108 -16.2885   H         1 RES1   0.0000
    19 H19     -0.9764  -7.8182 -17.0563   H         1 RES1   0.0000
    20 C20     -0.5870  -5.9122 -14.7311   C.2       1 RES1   0.0000
    21 C21      0.0604  -4.8376 -15.5265   C.ar      1 RES1   0.0000
    22 O22     -2.2453  -7.5340 -12.1709   O.2       1 RES1   0.0000
    23 C23     -1.6298  -7.1223 -13.1455   C.2       1 RES1   0.0000
    24 N24     -0.5185  -7.1938 -15.0941   N.pl3     1 RES1   0.0000
    25 C25     -0.8599 -11.6522 -13.1469   C.3       1 RES1   0.0000
    26 H26     -0.4192 -12.1250 -12.2704   H         1 RES1   0.0000
    27 H27     -0.3540 -12.0068 -14.0436   H         1 RES1   0.0000
    28 C28     -2.9914 -11.3418 -14.3766   C.3       1 RES1   0.0000
    29 H29     -2.5487 -11.6994 -15.3050   H         1 RES1   0.0000
    30 H30     -4.0507 -11.5938 -14.3589   H         1 RES1   0.0000
    31 C31     -2.8364  -9.8305 -14.2992   C.3       1 RES1   0.0000
    32 H32     -3.2801  -9.3810 -15.1863   H         1 RES1   0.0000
    33 H33     -3.3503  -9.4648 -13.4114   H         1 RES1   0.0000
    34 C34     -0.7025 -10.1453 -13.0406   C.3       1 RES1   0.0000
    35 H35     -1.1664  -9.8041 -12.1163   H         1 RES1   0.0000
    36 H36      0.3582  -9.8991 -13.0269   H         1 RES1   0.0000
    37 N37     -2.3115 -12.0021 -13.2236   N.4       1 RES1   1.0000
    38 H38     -2.7646 -11.7070 -12.3646   H         1 RES1   0.0000
    39 H39     -2.4002 -13.0082 -13.3245   H         1 RES1   0.0000
    40 N40     -0.4745  -4.5722 -16.7286   N.ar      1 RES1   0.0000
    41 C41      1.6905  -3.1773 -15.9048   C.ar      1 RES1   0.0000
    42 H42      2.5557  -2.6175 -15.5653   H         1 RES1   0.0000
    43 N43     -0.4029  -3.3687 -18.6792   N.pl3     1 RES1   0.0000
    44 H44     -1.1833  -3.9453 -18.9934   H         1 RES1   0.0000
    45 C45      1.1705  -4.1438 -15.0676   C.ar      1 RES1   0.0000
    46 H46      1.6110  -4.3522 -14.0982   H         1 RES1   0.0000
    47 C47      0.1180  -3.6205 -17.4677   C.ar      1 RES1   0.0000
    48 N48      1.1874  -2.8931 -17.1131   N.ar      1 RES1   0.0000
    49 C49      0.1189  -2.3613 -19.6025   C.3       1 RES1   0.0000
    50 H50      0.6176  -1.5724 -19.0183   H         1 RES1   0.0000
    51 C51     -0.9727  -1.7245 -20.4401   C.ar      1 RES1   0.0000
    52 C52      1.1574  -3.0396 -20.4881   C.3       1 RES1   0.0000
    53 H53      1.6040  -2.3250 -21.1764   H         1 RES1   0.0000
    54 H54      1.9537  -3.4750 -19.8880   H         1 RES1   0.0000
    55 H55      0.7018  -3.8348 -21.0745   H         1 RES1   0.0000
    56 C56     -2.9861  -0.5679 -21.9792   C.ar      1 RES1   0.0000
    57 H57     -3.7705  -0.1170 -22.5780   H         1 RES1   0.0000
    58 C58     -2.0790  -2.4636 -20.8336   C.ar      1 RES1   0.0000
    59 H59     -2.1605  -3.5045 -20.5387   H         1 RES1   0.0000
    60 C60     -0.8908  -0.3957 -20.8331   C.ar      1 RES1   0.0000
    61 H61     -0.0343   0.2017 -20.5389   H         1 RES1   0.0000
    62 C62     -1.8925   0.1780 -21.5978   C.ar      1 RES1   0.0000
    63 H63     -1.8154   1.2180 -21.8970   H         1 RES1   0.0000
    64 C64     -3.0800  -1.8881 -21.5976   C.ar      1 RES1   0.0000
    65 H65     -3.9399  -2.4784 -21.8961   H         1 RES1   0.0000
@<TRIPOS>BOND
     1     1     5   ar
     2     1     6   ar
     3     1     2    1
     4     3     8   ar
     5     3     9   ar
     6     3     4    1
     7     5     9   ar
     8     5    11    1
     9     6     8   ar
    10     6     7    1
    11     8    12    1
    12     9    10    1
    13    11    20    2
    14    11    23    1
    15    13    14    1
    16    13    23   am
    17    13    24    1
    18    14    31    1
    19    14    34    1
    20    14    15    1
    21    16    24    1
    22    16    17    1
    23    16    18    1
    24    16    19    1
    25    20    21    1
    26    20    24    1
    27    21    40   ar
    28    21    45   ar
    29    22    23    2
    30    25    34    1
    31    25    37    1
    32    25    26    1
    33    25    27    1
    34    28    31    1
    35    28    37    1
    36    28    29    1
    37    28    30    1
    38    31    32    1
    39    31    33    1
    40    34    35    1
    41    34    36    1
    42    37    38    1
    43    37    39    1
    44    40    47   ar
    45    41    45   ar
    46    41    48   ar
    47    41    42    1
    48    43    47    1
    49    43    49    1
    50    43    44    1
    51    45    46    1
    52    47    48   ar
    53    49    51    1
    54    49    52    1
    55    49    50    1
    56    51    58   ar
    57    51    60   ar
    58    52    53    1
    59    52    54    1
    60    52    55    1
    61    56    62   ar
    62    56    64   ar
    63    56    57    1
    64    58    64   ar
    65    58    59    1
    66    60    62   ar
    67    60    61    1
    68    62    63    1
    69    64    65    1
@<TRIPOS>SUBSTRUCTURE
     1 RES1        1 GROUP             0 ****  ****    0  
@<TRIPOS>MOLECULE
LIGAND_00101
    65    69     1     0     0
SMALL
USER_CHARGES
****
Generated from the CSD

@<TRIPOS>ATOM
     1 C1      -0.4436  -3.6869 -12.4155   C.ar      1 RES1   0.0000
     2 H2       0.5771  -4.0370 -12.5252   H         1 RES1   0.0000
     3 C3      -3.0310  -2.7546 -12.1551   C.ar      1 RES1   0.0000
     4 H4      -4.0437  -2.3782 -12.0559   H         1 RES1   0.0000
     5 C5      -1.4912  -4.4747 -12.8830   C.ar      1 RES1   0.0000
     6 C6      -0.6761  -2.4611 -11.8173   C.ar      1 RES1   0.0000
     7 H7       0.1465  -1.8584 -11.4472   H         1 RES1   0.0000
     8 C8      -1.9667  -2.0263 -11.7055   C.ar      1 RES1   0.0000
     9 C9      -2.7859  -3.9841 -12.7386   C.ar      1 RES1   0.0000
    10 H10     -3.6254  -4.5755 -13.0858   H         1 RES1   0.0000
    11 C11     -1.2547  -5.8030 -13.5365   C.2       1 RES1   0.0000
    12 F12     -2.2025  -0.8191 -11.1233   F         1 RES1   0.0000
    13 N13     -1.1781  -7.9481 -14.1156   N.am      1 RES1   0.0000
    14 C14     -1.3639  -9.4349 -14.2223   C.3       1 RES1   0.0000
    15 H15     -0.8754  -9.7718 -15.1354   H         1 RES1   0.0000
    16 C16     -0.1164  -7.7266 -16.3963   C.3       1 RES1   0.0000
    17 H17      0.6097  -7.0716 -16.8734   H         1 RES1   0.0000
    18 H18      0.3350  -8.7108 -16.2885   H         1 RES1   0.0000
    19 H19     -0.9764  -7.8182 -17.0563   H         1 RES1   0.0000
    20 C20     -0.5870  -5.9122 -14.7311   C.2       1 RES1   0.0000
    21 C21      0.0604  -4.8376 -15.5265   C.ar      1 RES1   0.0000
    22 O22     -2.2453  -7.5340 -12.1709   O.2       1 RES1   0.0000
    23 C23     -1.6298  -7.1223 -13.1455   C.2       1 RES1   0.0000
    24 N24     -0.5185  -7.1938 -15.0941   N.pl3     1 RES1   0.0000
    25 C25     -0.8599 -11.6522 -13.1468   C.3       1 RES1   0.0000
    26 H26     -0.4192 -12.1250 -12.2704   H         1 RES1   0.0000
    27 H27     -0.3539 -12.0068 -14.0436   H         1 RES1   0.0000
    28 C28     -2.9914 -11.3418 -14.3766   C.3       1 RES1   0.0000
    29 H29     -2.5486 -11.6994 -15.3050   H         1 RES1   0.0000
    30 H30     -4.0507 -11.5938 -14.3589   H         1 RES1   0.0000
    31 C31     -2.8364  -9.8305 -14.2992   C.3       1 RES1   0.0000
    32 H32     -3.2801  -9.3811 -15.1864   H         1 RES1   0.0000
    33 H33     -3.3503  -9.4648 -13.4114   H         1 RES1   0.0000
    34 C34     -0.7025 -10.1453 -13.0406   C.3       1 RES1   0.0000
    35 H35     -1.1664  -9.8041 -12.1163   H         1 RES1   0.0000
    36 H36      0.3582  -9.8991 -13.0268   H         1 RES1   0.0000
    37 N37     -2.3115 -12.0021 -13.2236   N.4       1 RES1   1.0000
    38 H38     -2.7646 -11.7070 -12.3645   H         1 RES1   0.0000
    39 H39     -2.4002 -13.0082 -13.3245   H         1 RES1   0.0000
    40 N40     -0.4745  -4.5722 -16.7286   N.ar      1 RES1   0.0000
    41 C41      1.6905  -3.1773 -15.9048   C.ar      1 RES1   0.0000
    42 H42      2.5557  -2.6175 -15.5653   H         1 RES1   0.0000
    43 N43     -0.4029  -3.3687 -18.6792   N.pl3     1 RES1   0.0000
    44 H44      0.0074  -2.6137 -19.2287   H         1 RES1   0.0000
    45 C45      1.1705  -4.1438 -15.0676   C.ar      1 RES1   0.0000
    46 H46      1.6110  -4.3522 -14.0982   H         1 RES1   0.0000
    47 C47      0.1180  -3.6205 -17.4677   C.ar      1 RES1   0.0000
    48 N48      1.1874  -2.8931 -17.1131   N.ar      1 RES1   0.0000
    49 C49     -1.5620  -4.0672 -19.2343   C.3       1 RES1   0.0000
    50 H50     -1.6198  -5.0692 -18.7816   H         1 RES1   0.0000
    51 C51     -1.4769  -4.2220 -20.7400   C.ar      1 RES1   0.0000
    52 C52     -2.8076  -3.2830 -18.8383   C.3       1 RES1   0.0000
    53 H53     -3.7067  -3.7780 -19.1995   H         1 RES1   0.0000
    54 H54     -2.8816  -3.1935 -17.7565   H         1 RES1   0.0000
    55 H55     -2.7806  -2.2804 -19.2600   H         1 RES1   0.0000
    56 C56     -1.3130  -4.4930 -23.5077   C.ar      1 RES1   0.0000
    57 H57     -1.2486  -4.5990 -24.5856   H         1 RES1   0.0000
    58 C58     -0.8674  -3.2453 -21.5143   C.ar      1 RES1   0.0000
    59 H59     -0.4500  -2.3654 -21.0360   H         1 RES1   0.0000
    60 C60     -2.0056  -5.3366 -21.3765   C.ar      1 RES1   0.0000
    61 H61     -2.4886  -6.1126 -20.7921   H         1 RES1   0.0000
    62 C62     -1.9231  -5.4701 -22.7523   C.ar      1 RES1   0.0000
    63 H63     -2.3403  -6.3470 -23.2361   H         1 RES1   0.0000
    64 C64     -0.7851  -3.3808 -22.8897   C.ar      1 RES1   0.0000
    65 H65     -0.3038  -2.6094 -23.4816   H         1 RES1   0.0000
@<TRIPOS>BOND
     1     1     5   ar
     2     1     6   ar
     3     1     2    1
     4     3     8   ar
     5     3     9   ar
     6     3     4    1
     7     5     9   ar
     8     5    11    1
     9     6     8   ar
    10     6     7    1
    11     8    12    1
    12     9    10    1
    13    11    20    2
    14    11    23    1
    15    13    14    1
    16    13    23   am
    17    13    24    1
    18    14    31    1
    19    14    34    1
    20    14    15    1
    21    16    24    1
    22    16    17    1
    23    16    18    1
    24    16    19    1
    25    20    21    1
    26    20    24    1
    27    21    40   ar
    28    21    45   ar
    29    22    23    2
    30    25    34    1
    31    25    37    1
    32    25    26    1
    33    25    27    1
    34    28    31    1
    35    28    37    1
    36    28    29    1
    37    28    30    1
    38    31    32    1
    39    31    33    1
    40    34    35    1
    41    34    36    1
    42    37    38    1
    43    37    39    1
    44    40    47   ar
    45    41    45   ar
    46    41    48   ar
    47    41    42    1
    48    43    47    1
    49    43    49    1
    50    43    44    1
    51    45    46    1
    52    47    48   ar
    53    49    51    1
    54    49    52    1
    55    49    50    1
    56    51    58   ar
    57    51    60   ar
    58    52    53    1
    59    52    54    1
    60    52    55    1
    61    56    62   ar
    62    56    64   ar
    63    56    57    1
    64    58    64   ar
    65    58    59    1
    66    60    62   ar
    67    60    61    1
    68    62    63    1
    69    64    65    1
@<TRIPOS>SUBSTRUCTURE
     1 RES1        1 GROUP             0 ****  ****    0  
@<TRIPOS>MOLECULE
LIGAND_00102
    65    69     1     0     0
SMALL
USER_CHARGES
****
Generated from the CSD

@<TRIPOS>ATOM
     1 C1      -0.3074  -4.3804 -11.5414   C.ar      1 RES1   0.0000
     2 H2       0.3353  -5.1858 -11.2027   H         1 RES1   0.0000
     3 C3      -1.9082  -2.2999 -12.4020   C.ar      1 RES1   0.0000
     4 H4      -2.5286  -1.4756 -12.7379   H         1 RES1   0.0000
     5 C5      -1.0920  -4.5623 -12.6764   C.ar      1 RES1   0.0000
     6 C6      -0.3253  -3.1895 -10.8372   C.ar      1 RES1   0.0000
     7 H7       0.2826  -3.0606  -9.9479   H         1 RES1   0.0000
     8 C8      -1.1254  -2.1784 -11.2894   C.ar      1 RES1   0.0000
     9 C9      -1.8915  -3.5000 -13.0889   C.ar      1 RES1   0.0000
    10 H10     -2.5202  -3.6105 -13.9650   H         1 RES1   0.0000
    11 C11     -1.0804  -5.8452 -13.4517   C.2       1 RES1   0.0000
    12 F12     -1.1439  -1.0024 -10.6050   F         1 RES1   0.0000
    13 N13     -1.3016  -7.9300 -14.1917   N.am      1 RES1   0.0000
    14 C14     -1.6526  -9.3783 -14.3807   C.3       1 RES1   0.0000
    15 H15     -1.3235  -9.6788 -15.3744   H         1 RES1   0.0000
    16 C16     -0.5251  -7.6116 -16.5736   C.3       1 RES1   0.0000
    17 H17      0.1886  -6.9809 -17.0996   H         1 RES1   0.0000
    18 H18     -0.1568  -8.6351 -16.6009   H         1 RES1   0.0000
    19 H19     -1.4702  -7.5765 -17.1114   H         1 RES1   0.0000
    20 C20     -0.5870  -5.9122 -14.7311   C.2       1 RES1   0.0000
    21 C21      0.0604  -4.8376 -15.5265   C.ar      1 RES1   0.0000
    22 O22     -2.0609  -7.5884 -12.0942   O.2       1 RES1   0.0000
    23 C23     -1.5367  -7.1528 -13.1110   C.2       1 RES1   0.0000
    24 N24     -0.6989  -7.1583 -15.1931   N.pl3     1 RES1   0.0000
    25 C25     -1.2464 -11.7175 -13.5501   C.3       1 RES1   0.0000
    26 H26     -0.7477 -12.3033 -12.7793   H         1 RES1   0.0000
    27 H27     -0.8998 -12.0386 -14.5312   H         1 RES1   0.0000
    28 C28     -3.4750 -11.1053 -14.4504   C.3       1 RES1   0.0000
    29 H29     -3.1951 -11.4208 -15.4544   H         1 RES1   0.0000
    30 H30     -4.5435 -11.2585 -14.3064   H         1 RES1   0.0000
    31 C31     -3.1557  -9.6273 -14.2842   C.3       1 RES1   0.0000
    32 H32     -3.6611  -9.0635 -15.0669   H         1 RES1   0.0000
    33 H33     -3.5101  -9.2937 -13.3100   H         1 RES1   0.0000
    34 C34     -0.9215 -10.2466 -13.3561   C.3       1 RES1   0.0000
    35 H35     -1.2244  -9.9451 -12.3545   H         1 RES1   0.0000
    36 H36      0.1519 -10.1021 -13.4696   H         1 RES1   0.0000
    37 N37     -2.7242 -11.9232 -13.4528   N.4       1 RES1   1.0000
    38 H38     -3.0296 -11.6628 -12.5206   H         1 RES1   0.0000
    39 H39     -2.9288 -12.9041 -13.6142   H         1 RES1   0.0000
    40 N40      1.3518  -5.0181 -15.8447   N.ar      1 RES1   0.0000
    41 C41      0.0944  -2.7605 -16.6407   C.ar      1 RES1   0.0000
    42 H42     -0.4181  -1.8597 -16.9618   H         1 RES1   0.0000
    43 N43      3.2523  -4.2108 -16.8421   N.pl3     1 RES1   0.0000
    44 H44      3.7217  -5.0421 -16.4831   H         1 RES1   0.0000
    45 C45     -0.6202  -3.6935 -15.9166   C.ar      1 RES1   0.0000
    46 H46     -1.6635  -3.5377 -15.6629   H         1 RES1   0.0000
    47 C47      1.9548  -4.0414 -16.5414   C.ar      1 RES1   0.0000
    48 N48      1.3851  -2.9047 -16.9677   N.ar      1 RES1   0.0000
    49 C49      4.0509  -3.2470 -17.5989   C.3       1 RES1   0.0000
    50 H50      3.3804  -2.6741 -18.2580   H         1 RES1   0.0000
    51 C51      5.1096  -3.9173 -18.4524   C.ar      1 RES1   0.0000
    52 C52      4.6861  -2.2871 -16.5998   C.3       1 RES1   0.0000
    53 H53      5.2686  -1.5250 -17.1132   H         1 RES1   0.0000
    54 H54      3.9247  -1.7876 -16.0044   H         1 RES1   0.0000
    55 H55      5.3493  -2.8210 -15.9225   H         1 RES1   0.0000
    56 C56      7.0564  -5.1602 -20.0098   C.ar      1 RES1   0.0000
    57 H57      7.8141  -5.6445 -20.6168   H         1 RES1   0.0000
    58 C58      5.7251  -5.0840 -18.0221   C.ar      1 RES1   0.0000
    59 H59      5.4451  -5.5169 -17.0675   H         1 RES1   0.0000
    60 C60      5.4879  -3.3821 -19.6760   C.ar      1 RES1   0.0000
    61 H61      5.0218  -2.4695 -20.0324   H         1 RES1   0.0000
    62 C62      6.4555  -4.0011 -20.4492   C.ar      1 RES1   0.0000
    63 H63      6.7407  -3.5717 -21.4038   H         1 RES1   0.0000
    64 C64      6.6918  -5.7020 -18.7969   C.ar      1 RES1   0.0000
    65 H65      7.1630  -6.6148 -18.4479   H         1 RES1   0.0000
@<TRIPOS>BOND
     1     1     5   ar
     2     1     6   ar
     3     1     2    1
     4     3     8   ar
     5     3     9   ar
     6     3     4    1
     7     5     9   ar
     8     5    11    1
     9     6     8   ar
    10     6     7    1
    11     8    12    1
    12     9    10    1
    13    11    20    2
    14    11    23    1
    15    13    14    1
    16    13    23   am
    17    13    24    1
    18    14    31    1
    19    14    34    1
    20    14    15    1
    21    16    24    1
    22    16    17    1
    23    16    18    1
    24    16    19    1
    25    20    21    1
    26    20    24    1
    27    21    40   ar
    28    21    45   ar
    29    22    23    2
    30    25    34    1
    31    25    37    1
    32    25    26    1
    33    25    27    1
    34    28    31    1
    35    28    37    1
    36    28    29    1
    37    28    30    1
    38    31    32    1
    39    31    33    1
    40    34    35    1
    41    34    36    1
    42    37    38    1
    43    37    39    1
    44    40    47   ar
    45    41    45   ar
    46    41    48   ar
    47    41    42    1
    48    43    47    1
    49    43    49    1
    50    43    44    1
    51    45    46    1
    52    47    48   ar
    53    49    51    1
    54    49    52    1
    55    49    50    1
    56    51    58   ar
    57    51    60   ar
    58    52    53    1
    59    52    54    1
    60    52    55    1
    61    56    62   ar
    62    56    64   ar
    63    56    57    1
    64    58    64   ar
    65    58    59    1
    66    60    62   ar
    67    60    61    1
    68    62    63    1
    69    64    65    1
@<TRIPOS>SUBSTRUCTURE
     1 RES1        1 GROUP             0 ****  ****    0  
@<TRIPOS>MOLECULE
LIGAND_00103
    65    69     1     0     0
SMALL
USER_CHARGES
****
Generated from the CSD

@<TRIPOS>ATOM
     1 C1      -0.3074  -4.3804 -11.5414   C.ar      1 RES1   0.0000
     2 H2       0.3353  -5.1858 -11.2027   H         1 RES1   0.0000
     3 C3      -1.9083  -2.2999 -12.4020   C.ar      1 RES1   0.0000
     4 H4      -2.5286  -1.4756 -12.7379   H         1 RES1   0.0000
     5 C5      -1.0920  -4.5623 -12.6764   C.ar      1 RES1   0.0000
     6 C6      -0.3253  -3.1895 -10.8372   C.ar      1 RES1   0.0000
     7 H7       0.2826  -3.0606  -9.9480   H         1 RES1   0.0000
     8 C8      -1.1255  -2.1784 -11.2895   C.ar      1 RES1   0.0000
     9 C9      -1.8915  -3.5000 -13.0889   C.ar      1 RES1   0.0000
    10 H10     -2.5202  -3.6105 -13.9650   H         1 RES1   0.0000
    11 C11     -1.0804  -5.8452 -13.4517   C.2       1 RES1   0.0000
    12 F12     -1.1439  -1.0023 -10.6050   F         1 RES1   0.0000
    13 N13     -1.3016  -7.9300 -14.1917   N.am      1 RES1   0.0000
    14 C14     -1.6526  -9.3783 -14.3807   C.3       1 RES1   0.0000
    15 H15     -1.3235  -9.6788 -15.3743   H         1 RES1   0.0000
    16 C16     -0.5251  -7.6116 -16.5736   C.3       1 RES1   0.0000
    17 H17      0.1901  -6.9821 -17.0990   H         1 RES1   0.0000
    18 H18     -0.1587  -8.6358 -16.6009   H         1 RES1   0.0000
    19 H19     -1.4698  -7.5747 -17.1120   H         1 RES1   0.0000
    20 C20     -0.5870  -5.9122 -14.7311   C.2       1 RES1   0.0000
    21 C21      0.0604  -4.8376 -15.5265   C.ar      1 RES1   0.0000
    22 O22     -2.0609  -7.5884 -12.0942   O.2       1 RES1   0.0000
    23 C23     -1.5367  -7.1528 -13.1110   C.2       1 RES1   0.0000
    24 N24     -0.6989  -7.1584 -15.1931   N.pl3     1 RES1   0.0000
    25 C25     -1.2464 -11.7175 -13.5500   C.3       1 RES1   0.0000
    26 H26     -0.7477 -12.3033 -12.7792   H         1 RES1   0.0000
    27 H27     -0.8998 -12.0386 -14.5312   H         1 RES1   0.0000
    28 C28     -3.4750 -11.1054 -14.4504   C.3       1 RES1   0.0000
    29 H29     -3.1951 -11.4208 -15.4544   H         1 RES1   0.0000
    30 H30     -4.5435 -11.2585 -14.3064   H         1 RES1   0.0000
    31 C31     -3.1557  -9.6273 -14.2842   C.3       1 RES1   0.0000
    32 H32     -3.6611  -9.0636 -15.0669   H         1 RES1   0.0000
    33 H33     -3.5101  -9.2937 -13.3100   H         1 RES1   0.0000
    34 C34     -0.9215 -10.2466 -13.3560   C.3       1 RES1   0.0000
    35 H35     -1.2244  -9.9451 -12.3544   H         1 RES1   0.0000
    36 H36      0.1519 -10.1021 -13.4695   H         1 RES1   0.0000
    37 N37     -2.7242 -11.9232 -13.4528   N.4       1 RES1   1.0000
    38 H38     -3.0297 -11.6628 -12.5206   H         1 RES1   0.0000
    39 H39     -2.9288 -12.9041 -13.6142   H         1 RES1   0.0000
    40 N40      1.3518  -5.0181 -15.8447   N.ar      1 RES1   0.0000
    41 C41      0.0944  -2.7605 -16.6407   C.ar      1 RES1   0.0000
    42 H42     -0.4181  -1.8597 -16.9618   H         1 RES1   0.0000
    43 N43      3.2523  -4.2108 -16.8421   N.pl3     1 RES1   0.0000
    44 H44      3.7075  -3.4995 -17.4139   H         1 RES1   0.0000
    45 C45     -0.6202  -3.6935 -15.9166   C.ar      1 RES1   0.0000
    46 H46     -1.6635  -3.5377 -15.6629   H         1 RES1   0.0000
    47 C47      1.9548  -4.0414 -16.5414   C.ar      1 RES1   0.0000
    48 N48      1.3851  -2.9047 -16.9677   N.ar      1 RES1   0.0000
    49 C49      4.0373  -5.3825 -16.4542   C.3       1 RES1   0.0000
    50 H50      3.5985  -5.8144 -15.5413   H         1 RES1   0.0000
    51 C51      5.4880  -5.0403 -16.1771   C.ar      1 RES1   0.0000
    52 C52      3.9256  -6.4065 -17.5777   C.3       1 RES1   0.0000
    53 H53      4.4672  -7.3160 -17.3266   H         1 RES1   0.0000
    54 H54      2.8859  -6.6705 -17.7595   H         1 RES1   0.0000
    55 H55      4.3408  -6.0096 -18.5018   H         1 RES1   0.0000
    56 C56      8.1531  -4.4004 -15.6788   C.ar      1 RES1   0.0000
    57 H57      9.1908  -4.1508 -15.4841   H         1 RES1   0.0000
    58 C58      6.1220  -4.0334 -16.8907   C.ar      1 RES1   0.0000
    59 H59      5.5732  -3.4893 -17.6523   H         1 RES1   0.0000
    60 C60      6.2131  -5.7235 -15.2104   C.ar      1 RES1   0.0000
    61 H61      5.7392  -6.5160 -14.6408   H         1 RES1   0.0000
    62 C62      7.5376  -5.4041 -14.9636   C.ar      1 RES1   0.0000
    63 H63      8.0918  -5.9461 -14.2045   H         1 RES1   0.0000
    64 C64      7.4462  -3.7149 -16.6421   C.ar      1 RES1   0.0000
    65 H65      7.9277  -2.9238 -17.2072   H         1 RES1   0.0000
@<TRIPOS>BOND
     1     1     5   ar
     2     1     6   ar
     3     1     2    1
     4     3     8   ar
     5     3     9   ar
     6     3     4    1
     7     5     9   ar
     8     5    11    1
     9     6     8   ar
    10     6     7    1
    11     8    12    1
    12     9    10    1
    13    11    20    2
    14    11    23    1
    15    13    14    1
    16    13    23   am
    17    13    24    1
    18    14    31    1
    19    14    34    1
    20    14    15    1
    21    16    24    1
    22    16    17    1
    23    16    18    1
    24    16    19    1
    25    20    21    1
    26    20    24    1
    27    21    40   ar
    28    21    45   ar
    29    22    23    2
    30    25    34    1
    31    25    37    1
    32    25    26    1
    33    25    27    1
    34    28    31    1
    35    28    37    1
    36    28    29    1
    37    28    30    1
    38    31    32    1
    39    31    33    1
    40    34    35    1
    41    34    36    1
    42    37    38    1
    43    37    39    1
    44    40    47   ar
    45    41    45   ar
    46    41    48   ar
    47    41    42    1
    48    43    47    1
    49    43    49    1
    50    43    44    1
    51    45    46    1
    52    47    48   ar
    53    49    51    1
    54    49    52    1
    55    49    50    1
    56    51    58   ar
    57    51    60   ar
    58    52    53    1
    59    52    54    1
    60    52    55    1
    61    56    62   ar
    62    56    64   ar
    63    56    57    1
    64    58    64   ar
    65    58    59    1
    66    60    62   ar
    67    60    61    1
    68    62    63    1
    69    64    65    1
@<TRIPOS>SUBSTRUCTURE
     1 RES1        1 GROUP             0 ****  ****    0  
@<TRIPOS>MOLECULE
LIGAND_00104
    65    69     1     0     0
SMALL
USER_CHARGES
****
Generated from the CSD

@<TRIPOS>ATOM
     1 C1      -0.3499  -3.4834 -14.8861   C.ar      1 RES1   0.0000
     2 H2      -1.4305  -3.4896 -14.7926   H         1 RES1   0.0000
     3 C3       2.4040  -3.4293 -15.0974   C.ar      1 RES1   0.0000
     4 H4       3.4858  -3.3980 -15.1754   H         1 RES1   0.0000
     5 C5       0.3668  -4.6461 -14.6192   C.ar      1 RES1   0.0000
     6 C6       0.2882  -2.3151 -15.2634   C.ar      1 RES1   0.0000
     7 H7      -0.2798  -1.4162 -15.4788   H         1 RES1   0.0000
     8 C8       1.6515  -2.3194 -15.3566   C.ar      1 RES1   0.0000
     9 C9       1.7531  -4.5941 -14.7345   C.ar      1 RES1   0.0000
    10 H10      2.3411  -5.4838 -14.5405   H         1 RES1   0.0000
    11 C11     -0.3102  -5.9181 -14.2058   C.2       1 RES1   0.0000
    12 F12      2.2862  -1.1724 -15.7218   F         1 RES1   0.0000
    13 N13     -1.2022  -7.9666 -14.1154   N.am      1 RES1   0.0000
    14 C14     -1.4069  -9.4504 -14.2294   C.3       1 RES1   0.0000
    15 H15     -0.8681  -9.7991 -15.1092   H         1 RES1   0.0000
    16 C16     -2.8519  -7.5766 -12.3455   C.3       1 RES1   0.0000
    17 H17     -3.0794  -6.8731 -11.5474   H         1 RES1   0.0000
    18 H18     -3.6420  -7.5103 -13.0907   H         1 RES1   0.0000
    19 H19     -2.8637  -8.5807 -11.9268   H         1 RES1   0.0000
    20 C20     -1.0688  -6.0097 -13.0848   C.2       1 RES1   0.0000
    21 C21     -1.4087  -4.9383 -12.1137   C.ar      1 RES1   0.0000
    22 O22      0.2011  -7.5829 -15.9058   O.2       1 RES1   0.0000
    23 C23     -0.3550  -7.1860 -14.8901   C.2       1 RES1   0.0000
    24 N24     -1.5488  -7.2806 -12.9418   N.3       1 RES1   0.0000
    25 C25     -1.0101 -11.6718 -13.1184   C.3       1 RES1   0.0000
    26 H26     -0.6336 -12.1488 -12.2147   H         1 RES1   0.0000
    27 H27     -0.4552 -12.0386 -13.9806   H         1 RES1   0.0000
    28 C28     -3.0546 -11.3295 -14.4804   C.3       1 RES1   0.0000
    29 H29     -2.5608 -11.6982 -15.3782   H         1 RES1   0.0000
    30 H30     -4.1171 -11.5631 -14.5286   H         1 RES1   0.0000
    31 C31     -2.8784  -9.8207 -14.3975   C.3       1 RES1   0.0000
    32 H32     -3.2576  -9.3671 -15.3121   H         1 RES1   0.0000
    33 H33     -3.4404  -9.4428 -13.5448   H         1 RES1   0.0000
    34 C34     -0.8334 -10.1675 -13.0066   C.3       1 RES1   0.0000
    35 H35     -1.3484  -9.8148 -12.1142   H         1 RES1   0.0000
    36 H36      0.2285  -9.9396 -12.9269   H         1 RES1   0.0000
    37 N37     -2.4600 -11.9969 -13.2851   N.4       1 RES1   1.0000
    38 H38     -2.9608 -11.6908 -12.4571   H         1 RES1   0.0000
    39 H39     -2.5598 -13.0017 -13.3887   H         1 RES1   0.0000
    40 N40     -0.3887  -4.4058 -11.4225   N.ar      1 RES1   0.0000
    41 C41     -2.9021  -3.5162 -10.9716   C.ar      1 RES1   0.0000
    42 H42     -3.9125  -3.1599 -10.8002   H         1 RES1   0.0000
    43 N43      0.3295  -2.9360  -9.8156   N.pl3     1 RES1   0.0000
    44 H44      1.2618  -3.3221  -9.9646   H         1 RES1   0.0000
    45 C45     -2.7122  -4.5088 -11.9118   C.ar      1 RES1   0.0000
    46 H46     -3.5434  -4.9341 -12.4645   H         1 RES1   0.0000
    47 C47     -0.6870  -3.4545 -10.5230   C.ar      1 RES1   0.0000
    48 N48     -1.9089  -2.9693 -10.2586   N.ar      1 RES1   0.0000
    49 C49      0.1741  -1.8956  -8.7993   C.3       1 RES1   0.0000
    50 H50     -0.8015  -2.0274  -8.3062   H         1 RES1   0.0000
    51 C51      0.2327  -0.4995  -9.3876   C.ar      1 RES1   0.0000
    52 C52      1.2731  -2.0946  -7.7621   C.3       1 RES1   0.0000
    53 H53      1.1852  -1.3636  -6.9611   H         1 RES1   0.0000
    54 H54      1.2154  -3.0880  -7.3220   H         1 RES1   0.0000
    55 H55      2.2552  -1.9821  -8.2166   H         1 RES1   0.0000
    56 C56      0.3548   2.0627 -10.4741   C.ar      1 RES1   0.0000
    57 H57      0.4019   3.0604 -10.8978   H         1 RES1   0.0000
    58 C58      1.3642  -0.0687 -10.0653   C.ar      1 RES1   0.0000
    59 H59      2.2116  -0.7377 -10.1729   H         1 RES1   0.0000
    60 C60     -0.8365   0.3766  -9.2612   C.ar      1 RES1   0.0000
    61 H61     -1.7312   0.0626  -8.7339   H         1 RES1   0.0000
    62 C62     -0.7746   1.6498  -9.8020   C.ar      1 RES1   0.0000
    63 H63     -1.6182   2.3235  -9.6960   H         1 RES1   0.0000
    64 C64      1.4241   1.2044 -10.6061   C.ar      1 RES1   0.0000
    65 H65      2.3150   1.5263 -11.1348   H         1 RES1   0.0000
@<TRIPOS>BOND
     1     1     5   ar
     2     1     6   ar
     3     1     2    1
     4     3     8   ar
     5     3     9   ar
     6     3     4    1
     7     5     9   ar
     8     5    11    1
     9     6     8   ar
    10     6     7    1
    11     8    12    1
    12     9    10    1
    13    11    20    2
    14    11    23    1
    15    13    14    1
    16    13    23   am
    17    13    24    1
    18    14    31    1
    19    14    34    1
    20    14    15    1
    21    16    24    1
    22    16    17    1
    23    16    18    1
    24    16    19    1
    25    20    21    1
    26    20    24    1
    27    21    40   ar
    28    21    45   ar
    29    22    23    2
    30    25    34    1
    31    25    37    1
    32    25    26    1
    33    25    27    1
    34    28    31    1
    35    28    37    1
    36    28    29    1
    37    28    30    1
    38    31    32    1
    39    31    33    1
    40    34    35    1
    41    34    36    1
    42    37    38    1
    43    37    39    1
    44    40    47   ar
    45    41    45   ar
    46    41    48   ar
    47    41    42    1
    48    43    47    1
    49    43    49    1
    50    43    44    1
    51    45    46    1
    52    47    48   ar
    53    49    51    1
    54    49    52    1
    55    49    50    1
    56    51    58   ar
    57    51    60   ar
    58    52    53    1
    59    52    54    1
    60    52    55    1
    61    56    62   ar
    62    56    64   ar
    63    56    57    1
    64    58    64   ar
    65    58    59    1
    66    60    62   ar
    67    60    61    1
    68    62    63    1
    69    64    65    1
@<TRIPOS>SUBSTRUCTURE
     1 RES1        1 GROUP             0 ****  ****    0  
@<TRIPOS>MOLECULE
LIGAND_00105
    65    69     1     0     0
SMALL
USER_CHARGES
****
Generated from the CSD

@<TRIPOS>ATOM
     1 C1       0.0071  -4.0101 -15.8470   C.ar      1 RES1   0.0000
     2 H2      -0.7387  -4.4548 -16.4971   H         1 RES1   0.0000
     3 C3       1.8840  -2.8369 -14.1940   C.ar      1 RES1   0.0000
     4 H4       2.6166  -2.3660 -13.5469   H         1 RES1   0.0000
     5 C5       0.3273  -4.6349 -14.6454   C.ar      1 RES1   0.0000
     6 C6       0.6167  -2.8281 -16.2286   C.ar      1 RES1   0.0000
     7 H7       0.3674  -2.3535 -17.1718   H         1 RES1   0.0000
     8 C8       1.5391  -2.2711 -15.3882   C.ar      1 RES1   0.0000
     9 C9       1.2773  -4.0252 -13.8307   C.ar      1 RES1   0.0000
    10 H10      1.5550  -4.4890 -12.8911   H         1 RES1   0.0000
    11 C11     -0.3273  -5.9135 -14.2169   C.2       1 RES1   0.0000
    12 F12      2.1387  -1.1057 -15.7545   F         1 RES1   0.0000
    13 N13     -1.1916  -7.9728 -14.1048   N.am      1 RES1   0.0000
    14 C14     -1.3788  -9.4596 -14.2094   C.3       1 RES1   0.0000
    15 H15     -0.8490  -9.8053 -15.0958   H         1 RES1   0.0000
    16 C16     -2.8210  -7.5959 -12.3134   C.3       1 RES1   0.0000
    17 H17     -3.0493  -6.8878 -11.5195   H         1 RES1   0.0000
    18 H18     -3.6214  -7.5494 -13.0490   H         1 RES1   0.0000
    19 H19     -2.8119  -8.5957 -11.8845   H         1 RES1   0.0000
    20 C20     -1.0688  -6.0097 -13.0848   C.2       1 RES1   0.0000
    21 C21     -1.4087  -4.9383 -12.1137   C.ar      1 RES1   0.0000
    22 O22      0.1813  -7.5794 -15.9166   O.2       1 RES1   0.0000
    23 C23     -0.3654  -7.1850 -14.8949   C.2       1 RES1   0.0000
    24 N24     -1.5303  -7.2859 -12.9294   N.3       1 RES1   0.0000
    25 C25     -0.9363 -11.6709 -13.0952   C.3       1 RES1   0.0000
    26 H26     -0.5399 -12.1390 -12.1954   H         1 RES1   0.0000
    27 H27     -0.3900 -12.0343 -13.9643   H         1 RES1   0.0000
    28 C28     -3.0057 -11.3609 -14.4270   C.3       1 RES1   0.0000
    29 H29     -2.5209 -11.7272 -15.3308   H         1 RES1   0.0000
    30 H30     -4.0657 -11.6083 -14.4579   H         1 RES1   0.0000
    31 C31     -2.8477  -9.8496 -14.3533   C.3       1 RES1   0.0000
    32 H32     -3.2467  -9.4050 -15.2638   H         1 RES1   0.0000
    33 H33     -3.4015  -9.4752 -13.4936   H         1 RES1   0.0000
    34 C34     -0.7774 -10.1639 -12.9925   C.3       1 RES1   0.0000
    35 H35     -1.2832  -9.8139 -12.0938   H         1 RES1   0.0000
    36 H36      0.2825  -9.9220 -12.9301   H         1 RES1   0.0000
    37 N37     -2.3843 -12.0153 -13.2383   N.4       1 RES1   1.0000
    38 H38     -2.8763 -11.7120 -12.4039   H         1 RES1   0.0000
    39 H39     -2.4726 -13.0217 -13.3360   H         1 RES1   0.0000
    40 N40     -0.3887  -4.4058 -11.4225   N.ar      1 RES1   0.0000
    41 C41     -2.9021  -3.5162 -10.9716   C.ar      1 RES1   0.0000
    42 H42     -3.9125  -3.1599 -10.8002   H         1 RES1   0.0000
    43 N43      0.3295  -2.9360  -9.8156   N.pl3     1 RES1   0.0000
    44 H44      1.2618  -3.3221  -9.9646   H         1 RES1   0.0000
    45 C45     -2.7122  -4.5088 -11.9118   C.ar      1 RES1   0.0000
    46 H46     -3.5434  -4.9341 -12.4645   H         1 RES1   0.0000
    47 C47     -0.6870  -3.4545 -10.5230   C.ar      1 RES1   0.0000
    48 N48     -1.9089  -2.9693 -10.2586   N.ar      1 RES1   0.0000
    49 C49      0.1741  -1.8956  -8.7993   C.3       1 RES1   0.0000
    50 H50     -0.8014  -2.0275  -8.3062   H         1 RES1   0.0000
    51 C51      0.2327  -0.4995  -9.3876   C.ar      1 RES1   0.0000
    52 C52      1.2731  -2.0946  -7.7621   C.3       1 RES1   0.0000
    53 H53      1.1852  -1.3636  -6.9611   H         1 RES1   0.0000
    54 H54      1.2154  -3.0880  -7.3220   H         1 RES1   0.0000
    55 H55      2.2552  -1.9821  -8.2166   H         1 RES1   0.0000
    56 C56      0.3547   2.0627 -10.4740   C.ar      1 RES1   0.0000
    57 H57      0.4018   3.0604 -10.8977   H         1 RES1   0.0000
    58 C58      1.3641  -0.0687 -10.0653   C.ar      1 RES1   0.0000
    59 H59      2.2116  -0.7376 -10.1729   H         1 RES1   0.0000
    60 C60     -0.8365   0.3766  -9.2611   C.ar      1 RES1   0.0000
    61 H61     -1.7313   0.0626  -8.7339   H         1 RES1   0.0000
    62 C62     -0.7746   1.6498  -9.8020   C.ar      1 RES1   0.0000
    63 H63     -1.6183   2.3235  -9.6959   H         1 RES1   0.0000
    64 C64      1.4240   1.2044 -10.6061   C.ar      1 RES1   0.0000
    65 H65      2.3150   1.5264 -11.1349   H         1 RES1   0.0000
@<TRIPOS>BOND
     1     1     5   ar
     2     1     6   ar
     3     1     2    1
     4     3     8   ar
     5     3     9   ar
     6     3     4    1
     7     5     9   ar
     8     5    11    1
     9     6     8   ar
    10     6     7    1
    11     8    12    1
    12     9    10    1
    13    11    20    2
    14    11    23    1
    15    13    14    1
    16    13    23   am
    17    13    24    1
    18    14    31    1
    19    14    34    1
    20    14    15    1
    21    16    24    1
    22    16    17    1
    23    16    18    1
    24    16    19    1
    25    20    21    1
    26    20    24    1
    27    21    40   ar
    28    21    45   ar
    29    22    23    2
    30    25    34    1
    31    25    37    1
    32    25    26    1
    33    25    27    1
    34    28    31    1
    35    28    37    1
    36    28    29    1
    37    28    30    1
    38    31    32    1
    39    31    33    1
    40    34    35    1
    41    34    36    1
    42    37    38    1
    43    37    39    1
    44    40    47   ar
    45    41    45   ar
    46    41    48   ar
    47    41    42    1
    48    43    47    1
    49    43    49    1
    50    43    44    1
    51    45    46    1
    52    47    48   ar
    53    49    51    1
    54    49    52    1
    55    49    50    1
    56    51    58   ar
    57    51    60   ar
    58    52    53    1
    59    52    54    1
    60    52    55    1
    61    56    62   ar
    62    56    64   ar
    63    56    57    1
    64    58    64   ar
    65    58    59    1
    66    60    62   ar
    67    60    61    1
    68    62    63    1
    69    64    65    1
@<TRIPOS>SUBSTRUCTURE
     1 RES1        1 GROUP             0 ****  ****    0  
@<TRIPOS>MOLECULE
LIGAND_00106
    65    69     1     0     0
SMALL
USER_CHARGES
****
Generated from the CSD

@<TRIPOS>ATOM
     1 C1       0.1312  -3.5487 -14.7744   C.ar      1 RES1   0.0000
     2 H2      -0.9438  -3.4593 -14.8882   H         1 RES1   0.0000
     3 C3       2.8690  -3.7382 -14.4578   C.ar      1 RES1   0.0000
     4 H4       3.9443  -3.8025 -14.3284   H         1 RES1   0.0000
     5 C5       0.6785  -4.7655 -14.3784   C.ar      1 RES1   0.0000
     6 C6       0.9301  -2.4463 -15.0210   C.ar      1 RES1   0.0000
     7 H7       0.4950  -1.5046 -15.3386   H         1 RES1   0.0000
     8 C8       2.2804  -2.5709 -14.8531   C.ar      1 RES1   0.0000
     9 C9       2.0606  -4.8363 -14.2277   C.ar      1 RES1   0.0000
    10 H10      2.5201  -5.7710 -13.9272   H         1 RES1   0.0000
    11 C11     -0.1744  -5.9673 -14.1040   C.2       1 RES1   0.0000
    12 F12      3.0718  -1.4892 -15.0885   F         1 RES1   0.0000
    13 N13     -1.2825  -7.9066 -14.2097   N.am      1 RES1   0.0000
    14 C14     -1.6277  -9.3544 -14.4125   C.3       1 RES1   0.0000
    15 H15     -1.0325  -9.7305 -15.2433   H         1 RES1   0.0000
    16 C16     -3.0841  -7.3926 -12.6298   C.3       1 RES1   0.0000
    17 H17     -3.3439  -6.6648 -11.8638   H         1 RES1   0.0000
    18 H18     -3.7643  -7.2588 -13.4684   H         1 RES1   0.0000
    19 H19     -3.2423  -8.3880 -12.2200   H         1 RES1   0.0000
    20 C20     -1.0688  -6.0097 -13.0848   C.2       1 RES1   0.0000
    21 C21     -1.4087  -4.9383 -12.1137   C.ar      1 RES1   0.0000
    22 O22      0.3603  -7.6242 -15.8045   O.2       1 RES1   0.0000
    23 C23     -0.2697  -7.2004 -14.8444   C.2       1 RES1   0.0000
    24 N24     -1.6944  -7.2237 -13.0555   N.3       1 RES1   0.0000
    25 C25     -1.5948 -11.6419 -13.3669   C.3       1 RES1   0.0000
    26 H26     -1.3751 -12.1872 -12.4502   H         1 RES1   0.0000
    27 H27     -0.9875 -12.0382 -14.1794   H         1 RES1   0.0000
    28 C28     -3.4247 -11.0325 -14.9264   C.3       1 RES1   0.0000
    29 H29     -2.8740 -11.4228 -15.7810   H         1 RES1   0.0000
    30 H30     -4.4936 -11.1466 -15.1006   H         1 RES1   0.0000
    31 C31     -3.1014  -9.5557 -14.7565   C.3       1 RES1   0.0000
    32 H32     -3.3250  -9.0330 -15.6853   H         1 RES1   0.0000
    33 H33     -3.7135  -9.1473 -13.9537   H         1 RES1   0.0000
    34 C34     -1.2748 -10.1705 -13.1684   C.3       1 RES1   0.0000
    35 H35     -1.8475  -9.7936 -12.3223   H         1 RES1   0.0000
    36 H36     -0.2107 -10.0630 -12.9633   H         1 RES1   0.0000
    37 N37     -3.0426 -11.8006 -13.7051   N.4       1 RES1   1.0000
    38 H38     -3.5989 -11.4693 -12.9234   H         1 RES1   0.0000
    39 H39     -3.2349 -12.7844 -13.8644   H         1 RES1   0.0000
    40 N40     -1.0980  -5.1692 -10.8285   N.ar      1 RES1   0.0000
    41 C41     -2.3055  -2.8456 -11.5027   C.ar      1 RES1   0.0000
    42 H42     -2.7847  -1.9129 -11.7813   H         1 RES1   0.0000
    43 N43     -1.1330  -4.4573  -8.6489   N.pl3     1 RES1   0.0000
    44 H44     -0.7251  -5.3612  -8.4102   H         1 RES1   0.0000
    45 C45     -2.0280  -3.7587 -12.5000   C.ar      1 RES1   0.0000
    46 H46     -2.2846  -3.5636 -13.5360   H         1 RES1   0.0000
    47 C47     -1.4239  -4.2187  -9.9377   C.ar      1 RES1   0.0000
    48 N48     -2.0171  -3.0474 -10.2104   N.ar      1 RES1   0.0000
    49 C49     -1.4225  -3.5274  -7.5576   C.3       1 RES1   0.0000
    50 H50     -2.3445  -2.9763  -7.7993   H         1 RES1   0.0000
    51 C51     -0.3049  -2.5264  -7.3395   C.ar      1 RES1   0.0000
    52 C52     -1.6660  -4.3526  -6.2994   C.3       1 RES1   0.0000
    53 H53     -1.9189  -3.7098  -5.4589   H         1 RES1   0.0000
    54 H54     -2.4845  -5.0537  -6.4481   H         1 RES1   0.0000
    55 H55     -0.7769  -4.9213  -6.0349   H         1 RES1   0.0000
    56 C56      1.7405  -0.6808  -6.9271   C.ar      1 RES1   0.0000
    57 H57      2.5375   0.0375  -6.7661   H         1 RES1   0.0000
    58 C58     -0.4058  -1.5652  -6.3440   C.ar      1 RES1   0.0000
    59 H59     -1.2922  -1.5319  -5.7192   H         1 RES1   0.0000
    60 C60      0.8379  -2.5458  -8.1271   C.ar      1 RES1   0.0000
    61 H61      0.9385  -3.2871  -8.9129   H         1 RES1   0.0000
    62 C62      1.8539  -1.6280  -7.9208   C.ar      1 RES1   0.0000
    63 H63      2.7418  -1.6556  -8.5437   H         1 RES1   0.0000
    64 C64      0.6114  -0.6488  -6.1386   C.ar      1 RES1   0.0000
    65 H65      0.5188   0.0958  -5.3550   H         1 RES1   0.0000
@<TRIPOS>BOND
     1     1     5   ar
     2     1     6   ar
     3     1     2    1
     4     3     8   ar
     5     3     9   ar
     6     3     4    1
     7     5     9   ar
     8     5    11    1
     9     6     8   ar
    10     6     7    1
    11     8    12    1
    12     9    10    1
    13    11    20    2
    14    11    23    1
    15    13    14    1
    16    13    23   am
    17    13    24    1
    18    14    31    1
    19    14    34    1
    20    14    15    1
    21    16    24    1
    22    16    17    1
    23    16    18    1
    24    16    19    1
    25    20    21    1
    26    20    24    1
    27    21    40   ar
    28    21    45   ar
    29    22    23    2
    30    25    34    1
    31    25    37    1
    32    25    26    1
    33    25    27    1
    34    28    31    1
    35    28    37    1
    36    28    29    1
    37    28    30    1
    38    31    32    1
    39    31    33    1
    40    34    35    1
    41    34    36    1
    42    37    38    1
    43    37    39    1
    44    40    47   ar
    45    41    45   ar
    46    41    48   ar
    47    41    42    1
    48    43    47    1
    49    43    49    1
    50    43    44    1
    51    45    46    1
    52    47    48   ar
    53    49    51    1
    54    49    52    1
    55    49    50    1
    56    51    58   ar
    57    51    60   ar
    58    52    53    1
    59    52    54    1
    60    52    55    1
    61    56    62   ar
    62    56    64   ar
    63    56    57    1
    64    58    64   ar
    65    58    59    1
    66    60    62   ar
    67    60    61    1
    68    62    63    1
    69    64    65    1
@<TRIPOS>SUBSTRUCTURE
     1 RES1        1 GROUP             0 ****  ****    0  
@<TRIPOS>MOLECULE
LIGAND_00107
    65    69     1     0     0
SMALL
USER_CHARGES
****
Generated from the CSD

@<TRIPOS>ATOM
     1 C1      -0.1340  -3.9649 -15.8332   C.ar      1 RES1   0.0000
     2 H2      -0.9321  -4.3894 -16.4326   H         1 RES1   0.0000
     3 C3       1.8765  -2.8427 -14.3067   C.ar      1 RES1   0.0000
     4 H4       2.6615  -2.3918 -13.7086   H         1 RES1   0.0000
     5 C5       0.2774  -4.6218 -14.6774   C.ar      1 RES1   0.0000
     6 C6       0.4507  -2.7760 -16.2323   C.ar      1 RES1   0.0000
     7 H7       0.1298  -2.2762 -17.1402   H         1 RES1   0.0000
     8 C8       1.4408  -2.2448 -15.4547   C.ar      1 RES1   0.0000
     9 C9       1.2933  -4.0374 -13.9262   C.ar      1 RES1   0.0000
    10 H10      1.6424  -4.5265 -13.0239   H         1 RES1   0.0000
    11 C11     -0.3490  -5.9082 -14.2303   C.2       1 RES1   0.0000
    12 F12      2.0166  -1.0730 -15.8382   F         1 RES1   0.0000
    13 N13     -1.1780  -7.9803 -14.0918   N.am      1 RES1   0.0000
    14 C14     -1.3431  -9.4705 -14.1849   C.3       1 RES1   0.0000
    15 H15     -0.8269  -9.8123 -15.0808   H         1 RES1   0.0000
    16 C16     -2.7814  -7.6192 -12.2739   C.3       1 RES1   0.0000
    17 H17     -3.0173  -6.8979 -11.4942   H         1 RES1   0.0000
    18 H18     -3.5921  -7.6105 -12.9995   H         1 RES1   0.0000
    19 H19     -2.7417  -8.6077 -11.8213   H         1 RES1   0.0000
    20 C20     -1.0688  -6.0097 -13.0848   C.2       1 RES1   0.0000
    21 C21     -1.4087  -4.9383 -12.1137   C.ar      1 RES1   0.0000
    22 O22      0.1562  -7.5755 -15.9297   O.2       1 RES1   0.0000
    23 C23     -0.3787  -7.1840 -14.9006   C.2       1 RES1   0.0000
    24 N24     -1.5070  -7.2922 -12.9143   N.3       1 RES1   0.0000
    25 C25     -0.8408 -11.6683 -13.0695   C.3       1 RES1   0.0000
    26 H26     -0.4176 -12.1252 -12.1761   H         1 RES1   0.0000
    27 H27     -0.3074 -12.0275 -13.9483   H         1 RES1   0.0000
    28 C28     -2.9431 -11.3990 -14.3580   C.3       1 RES1   0.0000
    29 H29     -2.4719 -11.7622 -15.2701   H         1 RES1   0.0000
    30 H30     -3.9994 -11.6638 -14.3648   H         1 RES1   0.0000
    31 C31     -2.8083  -9.8851 -14.2952   C.3       1 RES1   0.0000
    32 H32     -3.2339  -9.4518 -15.1991   H         1 RES1   0.0000
    33 H33     -3.3495  -9.5151 -13.4256   H         1 RES1   0.0000
    34 C34     -0.7044 -10.1585 -12.9778   C.3       1 RES1   0.0000
    35 H35     -1.1964  -9.8119 -12.0701   H         1 RES1   0.0000
    36 H36      0.3526  -9.8991 -12.9394   H         1 RES1   0.0000
    37 N37     -2.2857 -12.0370 -13.1796   N.4       1 RES1   1.0000
    38 H38     -2.7646 -11.7372 -12.3364   H         1 RES1   0.0000
    39 H39     -2.3597 -13.0452 -13.2704   H         1 RES1   0.0000
    40 N40     -2.7044  -4.6015 -12.0170   N.ar      1 RES1   0.0000
    41 C41     -0.8828  -3.3107 -10.4916   C.ar      1 RES1   0.0000
    42 H42     -0.1470  -2.8011  -9.8782   H         1 RES1   0.0000
    43 N43     -4.3133  -3.2636 -11.0790   N.pl3     1 RES1   0.0000
    44 H44     -4.5718  -2.5490 -10.3986   H         1 RES1   0.0000
    45 C45     -0.4438  -4.3003 -11.3480   C.ar      1 RES1   0.0000
    46 H46      0.6060  -4.5644 -11.4202   H         1 RES1   0.0000
    47 C47     -3.0204  -3.6162 -11.1612   C.ar      1 RES1   0.0000
    48 N48     -2.1657  -2.9439 -10.3765   N.ar      1 RES1   0.0000
    49 C49     -5.3834  -3.8845 -11.8594   C.3       1 RES1   0.0000
    50 H50     -5.1319  -4.9440 -12.0220   H         1 RES1   0.0000
    51 C51     -5.5740  -3.2210 -13.2092   C.ar      1 RES1   0.0000
    52 C52     -6.6615  -3.8104 -11.0322   C.3       1 RES1   0.0000
    53 H53     -7.4875  -4.2891 -11.5540   H         1 RES1   0.0000
    54 H54     -6.5322  -4.3084 -10.0736   H         1 RES1   0.0000
    55 H55     -6.9363  -2.7750 -10.8416   H         1 RES1   0.0000
    56 C56     -5.9358  -2.0117 -15.6925   C.ar      1 RES1   0.0000
    57 H57     -6.0771  -1.5402 -16.6594   H         1 RES1   0.0000
    58 C58     -6.5469  -3.6779 -14.0865   C.ar      1 RES1   0.0000
    59 H59     -7.1738  -4.5165 -13.8020   H         1 RES1   0.0000
    60 C60     -4.7831  -2.1486 -13.5983   C.ar      1 RES1   0.0000
    61 H61     -4.0147  -1.7749 -12.9297   H         1 RES1   0.0000
    62 C62     -4.9644  -1.5483 -14.8328   C.ar      1 RES1   0.0000
    63 H63     -4.3392  -0.7105 -15.1233   H         1 RES1   0.0000
    64 C64     -6.7272  -3.0760 -15.3202   C.ar      1 RES1   0.0000
    65 H65     -7.4933  -3.4434 -15.9948   H         1 RES1   0.0000
@<TRIPOS>BOND
     1     1     5   ar
     2     1     6   ar
     3     1     2    1
     4     3     8   ar
     5     3     9   ar
     6     3     4    1
     7     5     9   ar
     8     5    11    1
     9     6     8   ar
    10     6     7    1
    11     8    12    1
    12     9    10    1
    13    11    20    2
    14    11    23    1
    15    13    14    1
    16    13    23   am
    17    13    24    1
    18    14    31    1
    19    14    34    1
    20    14    15    1
    21    16    24    1
    22    16    17    1
    23    16    18    1
    24    16    19    1
    25    20    21    1
    26    20    24    1
    27    21    40   ar
    28    21    45   ar
    29    22    23    2
    30    25    34    1
    31    25    37    1
    32    25    26    1
    33    25    27    1
    34    28    31    1
    35    28    37    1
    36    28    29    1
    37    28    30    1
    38    31    32    1
    39    31    33    1
    40    34    35    1
    41    34    36    1
    42    37    38    1
    43    37    39    1
    44    40    47   ar
    45    41    45   ar
    46    41    48   ar
    47    41    42    1
    48    43    47    1
    49    43    49    1
    50    43    44    1
    51    45    46    1
    52    47    48   ar
    53    49    51    1
    54    49    52    1
    55    49    50    1
    56    51    58   ar
    57    51    60   ar
    58    52    53    1
    59    52    54    1
    60    52    55    1
    61    56    62   ar
    62    56    64   ar
    63    56    57    1
    64    58    64   ar
    65    58    59    1
    66    60    62   ar
    67    60    61    1
    68    62    63    1
    69    64    65    1
@<TRIPOS>SUBSTRUCTURE
     1 RES1        1 GROUP             0 ****  ****    0  
@<TRIPOS>MOLECULE
LIGAND_00108
    65    69     1     0     0
SMALL
USER_CHARGES
****
Generated from the CSD

@<TRIPOS>ATOM
     1 C1      -3.0248  -3.8117 -15.3691   C.ar      1 RES1   0.0000
     2 H2      -3.8579  -4.2218 -14.8086   H         1 RES1   0.0000
     3 C3      -0.9094  -2.7260 -16.7756   C.ar      1 RES1   0.0000
     4 H4      -0.0813  -2.2894 -17.3241   H         1 RES1   0.0000
     5 C5      -1.8085  -4.4880 -15.3803   C.ar      1 RES1   0.0000
     6 C6      -3.1929  -2.6215 -16.0545   C.ar      1 RES1   0.0000
     7 H7      -4.1477  -2.1065 -16.0477   H         1 RES1   0.0000
     8 C8      -2.1271  -2.1087 -16.7387   C.ar      1 RES1   0.0000
     9 C9      -0.7584  -3.9218 -16.0977   C.ar      1 RES1   0.0000
    10 H10      0.2005  -4.4262 -16.1329   H         1 RES1   0.0000
    11 C11     -1.6101  -5.7761 -14.6397   C.2       1 RES1   0.0000
    12 F12     -2.2837  -0.9357 -17.4105   F         1 RES1   0.0000
    13 N13     -1.2406  -7.9410 -14.1570   N.am      1 RES1   0.0000
    14 C14     -1.5106  -9.4109 -14.3092   C.3       1 RES1   0.0000
    15 H15     -1.2169  -9.7059 -15.3155   H         1 RES1   0.0000
    16 C16     -0.8997  -7.6987 -11.7768   C.3       1 RES1   0.0000
    17 H17     -1.4821  -8.4148 -11.2007   H         1 RES1   0.0000
    18 H18      0.0445  -8.1682 -12.0450   H         1 RES1   0.0000
    19 H19     -0.6847  -6.8442 -11.1386   H         1 RES1   0.0000
    20 C20     -1.7513  -5.9390 -13.3057   C.2       1 RES1   0.0000
    21 C21     -2.0254  -4.9138 -12.2663   C.ar      1 RES1   0.0000
    22 O22     -1.1751  -7.3947 -16.3880   O.2       1 RES1   0.0000
    23 C23     -1.3018  -7.0544 -15.2191   C.2       1 RES1   0.0000
    24 N24     -1.6302  -7.2794 -12.9734   N.3       1 RES1   0.0000
    25 C25     -0.9161 -11.7077 -13.4736   C.3       1 RES1   0.0000
    26 H26     -0.3416 -12.2498 -12.7239   H         1 RES1   0.0000
    27 H27     -0.6031 -12.0220 -14.4681   H         1 RES1   0.0000
    28 C28     -3.2233 -11.2474 -14.2590   C.3       1 RES1   0.0000
    29 H29     -2.9784 -11.5605 -15.2729   H         1 RES1   0.0000
    30 H30     -4.2711 -11.4636 -14.0555   H         1 RES1   0.0000
    31 C31     -2.9880  -9.7502 -14.1283   C.3       1 RES1   0.0000
    32 H32     -3.5685  -9.2306 -14.8892   H         1 RES1   0.0000
    33 H33     -3.3100  -9.4240 -13.1405   H         1 RES1   0.0000
    34 C34     -0.6733 -10.2168 -13.3153   C.3       1 RES1   0.0000
    35 H35     -0.9405  -9.9191 -12.3024   H         1 RES1   0.0000
    36 H36      0.3815 -10.0085 -13.4885   H         1 RES1   0.0000
    37 N37     -2.3710 -12.0022 -13.2939   N.4       1 RES1   1.0000
    38 H38     -2.6419 -11.7466 -12.3497   H         1 RES1   0.0000
    39 H39     -2.5226 -12.9962 -13.4321   H         1 RES1   0.0000
    40 N40     -3.1488  -5.0691 -11.5482   N.ar      1 RES1   0.0000
    41 C41     -1.5487  -2.9443 -11.0618   C.ar      1 RES1   0.0000
    42 H42     -0.8989  -2.0972 -10.8681   H         1 RES1   0.0000
    43 N43     -4.5543  -4.2769  -9.9188   N.pl3     1 RES1   0.0000
    44 H44     -5.1780  -5.0450 -10.1666   H         1 RES1   0.0000
    45 C45     -1.1781  -3.8376 -12.0468   C.ar      1 RES1   0.0000
    46 H46     -0.2689  -3.7025 -12.6231   H         1 RES1   0.0000
    47 C47     -3.4203  -4.1344 -10.6232   C.ar      1 RES1   0.0000
    48 N48     -2.6660  -3.0643 -10.3331   N.ar      1 RES1   0.0000
    49 C49     -4.9819  -3.3627  -8.8601   C.3       1 RES1   0.0000
    50 H50     -4.6023  -2.3550  -9.0899   H         1 RES1   0.0000
    51 C51     -4.4630  -3.7745  -7.4964   C.ar      1 RES1   0.0000
    52 C52     -6.5056  -3.3218  -8.8719   C.3       1 RES1   0.0000
    53 H53     -6.8792  -2.6284  -8.1214   H         1 RES1   0.0000
    54 H54     -6.8771  -3.0022  -9.8433   H         1 RES1   0.0000
    55 H55     -6.9179  -4.3058  -8.6587   H         1 RES1   0.0000
    56 C56     -3.5241  -4.5326  -4.9856   C.ar      1 RES1   0.0000
    57 H57     -3.1582  -4.8286  -4.0080   H         1 RES1   0.0000
    58 C58     -5.3458  -4.0714  -6.4680   C.ar      1 RES1   0.0000
    59 H59     -6.4145  -4.0070  -6.6439   H         1 RES1   0.0000
    60 C60     -3.1006  -3.8615  -7.2447   C.ar      1 RES1   0.0000
    61 H61     -2.3911  -3.6323  -8.0329   H         1 RES1   0.0000
    62 C62     -2.6354  -4.2388  -5.9963   C.ar      1 RES1   0.0000
    63 H63     -1.5678  -4.3031  -5.8143   H         1 RES1   0.0000
    64 C64     -4.8788  -4.4492  -5.2206   C.ar      1 RES1   0.0000
    65 H65     -5.5815  -4.6801  -4.4269   H         1 RES1   0.0000
@<TRIPOS>BOND
     1     1     5   ar
     2     1     6   ar
     3     1     2    1
     4     3     8   ar
     5     3     9   ar
     6     3     4    1
     7     5     9   ar
     8     5    11    1
     9     6     8   ar
    10     6     7    1
    11     8    12    1
    12     9    10    1
    13    11    20    2
    14    11    23    1
    15    13    14    1
    16    13    23   am
    17    13    24    1
    18    14    31    1
    19    14    34    1
    20    14    15    1
    21    16    24    1
    22    16    17    1
    23    16    18    1
    24    16    19    1
    25    20    21    1
    26    20    24    1
    27    21    40   ar
    28    21    45   ar
    29    22    23    2
    30    25    34    1
    31    25    37    1
    32    25    26    1
    33    25    27    1
    34    28    31    1
    35    28    37    1
    36    28    29    1
    37    28    30    1
    38    31    32    1
    39    31    33    1
    40    34    35    1
    41    34    36    1
    42    37    38    1
    43    37    39    1
    44    40    47   ar
    45    41    45   ar
    46    41    48   ar
    47    41    42    1
    48    43    47    1
    49    43    49    1
    50    43    44    1
    51    45    46    1
    52    47    48   ar
    53    49    51    1
    54    49    52    1
    55    49    50    1
    56    51    58   ar
    57    51    60   ar
    58    52    53    1
    59    52    54    1
    60    52    55    1
    61    56    62   ar
    62    56    64   ar
    63    56    57    1
    64    58    64   ar
    65    58    59    1
    66    60    62   ar
    67    60    61    1
    68    62    63    1
    69    64    65    1
@<TRIPOS>SUBSTRUCTURE
     1 RES1        1 GROUP             0 ****  ****    0  
@<TRIPOS>MOLECULE
LIGAND_00109
    65    69     1     0     0
SMALL
USER_CHARGES
****
Generated from the CSD

@<TRIPOS>ATOM
     1 C1      -3.0248  -3.8117 -15.3691   C.ar      1 RES1   0.0000
     2 H2      -3.8579  -4.2218 -14.8086   H         1 RES1   0.0000
     3 C3      -0.9094  -2.7260 -16.7756   C.ar      1 RES1   0.0000
     4 H4      -0.0813  -2.2894 -17.3241   H         1 RES1   0.0000
     5 C5      -1.8085  -4.4880 -15.3803   C.ar      1 RES1   0.0000
     6 C6      -3.1929  -2.6215 -16.0545   C.ar      1 RES1   0.0000
     7 H7      -4.1477  -2.1065 -16.0477   H         1 RES1   0.0000
     8 C8      -2.1271  -2.1087 -16.7387   C.ar      1 RES1   0.0000
     9 C9      -0.7584  -3.9218 -16.0977   C.ar      1 RES1   0.0000
    10 H10      0.2005  -4.4262 -16.1329   H         1 RES1   0.0000
    11 C11     -1.6101  -5.7761 -14.6397   C.2       1 RES1   0.0000
    12 F12     -2.2837  -0.9357 -17.4105   F         1 RES1   0.0000
    13 N13     -1.2406  -7.9410 -14.1570   N.am      1 RES1   0.0000
    14 C14     -1.5106  -9.4109 -14.3092   C.3       1 RES1   0.0000
    15 H15     -1.2170  -9.7059 -15.3155   H         1 RES1   0.0000
    16 C16     -0.8997  -7.6987 -11.7768   C.3       1 RES1   0.0000
    17 H17     -1.4822  -8.4147 -11.2006   H         1 RES1   0.0000
    18 H18      0.0444  -8.1683 -12.0450   H         1 RES1   0.0000
    19 H19     -0.6845  -6.8442 -11.1387   H         1 RES1   0.0000
    20 C20     -1.7513  -5.9390 -13.3057   C.2       1 RES1   0.0000
    21 C21     -2.0254  -4.9138 -12.2663   C.ar      1 RES1   0.0000
    22 O22     -1.1751  -7.3947 -16.3880   O.2       1 RES1   0.0000
    23 C23     -1.3018  -7.0544 -15.2191   C.2       1 RES1   0.0000
    24 N24     -1.6302  -7.2794 -12.9734   N.3       1 RES1   0.0000
    25 C25     -0.9161 -11.7077 -13.4736   C.3       1 RES1   0.0000
    26 H26     -0.3415 -12.2498 -12.7240   H         1 RES1   0.0000
    27 H27     -0.6031 -12.0220 -14.4682   H         1 RES1   0.0000
    28 C28     -3.2233 -11.2474 -14.2590   C.3       1 RES1   0.0000
    29 H29     -2.9784 -11.5605 -15.2728   H         1 RES1   0.0000
    30 H30     -4.2711 -11.4636 -14.0554   H         1 RES1   0.0000
    31 C31     -2.9880  -9.7502 -14.1282   C.3       1 RES1   0.0000
    32 H32     -3.5685  -9.2306 -14.8891   H         1 RES1   0.0000
    33 H33     -3.3099  -9.4240 -13.1404   H         1 RES1   0.0000
    34 C34     -0.6732 -10.2168 -13.3153   C.3       1 RES1   0.0000
    35 H35     -0.9404  -9.9191 -12.3025   H         1 RES1   0.0000
    36 H36      0.3815 -10.0085 -13.4886   H         1 RES1   0.0000
    37 N37     -2.3709 -12.0022 -13.2939   N.4       1 RES1   1.0000
    38 H38     -2.6418 -11.7467 -12.3496   H         1 RES1   0.0000
    39 H39     -2.5226 -12.9962 -13.4320   H         1 RES1   0.0000
    40 N40     -3.1488  -5.0691 -11.5482   N.ar      1 RES1   0.0000
    41 C41     -1.5487  -2.9443 -11.0618   C.ar      1 RES1   0.0000
    42 H42     -0.8989  -2.0972 -10.8681   H         1 RES1   0.0000
    43 N43     -4.5543  -4.2769  -9.9188   N.pl3     1 RES1   0.0000
    44 H44     -4.7389  -3.6099  -9.1695   H         1 RES1   0.0000
    45 C45     -1.1781  -3.8376 -12.0468   C.ar      1 RES1   0.0000
    46 H46     -0.2689  -3.7025 -12.6231   H         1 RES1   0.0000
    47 C47     -3.4203  -4.1344 -10.6232   C.ar      1 RES1   0.0000
    48 N48     -2.6660  -3.0643 -10.3331   N.ar      1 RES1   0.0000
    49 C49     -5.5109  -5.3657 -10.1167   C.3       1 RES1   0.0000
    50 H50     -4.9639  -6.2572 -10.4606   H         1 RES1   0.0000
    51 C51     -6.5713  -5.0236 -11.1449   C.ar      1 RES1   0.0000
    52 C52     -6.1443  -5.6760  -8.7655   C.3       1 RES1   0.0000
    53 H53     -6.8444  -6.5046  -8.8484   H         1 RES1   0.0000
    54 H54     -5.3851  -5.9457  -8.0344   H         1 RES1   0.0000
    55 H55     -6.6863  -4.8115  -8.3877   H         1 RES1   0.0000
    56 C56     -8.5307  -4.3967 -13.0232   C.ar      1 RES1   0.0000
    57 H57     -9.2936  -4.1518 -13.7547   H         1 RES1   0.0000
    58 C58     -7.9131  -5.0063 -10.7925   C.ar      1 RES1   0.0000
    59 H59     -8.2026  -5.2403  -9.7734   H         1 RES1   0.0000
    60 C60     -6.2275  -4.7236 -12.4559   C.ar      1 RES1   0.0000
    61 H61     -5.1847  -4.7325 -12.7553   H         1 RES1   0.0000
    62 C62     -7.2025  -4.4118 -13.3884   C.ar      1 RES1   0.0000
    63 H63     -6.9189  -4.1788 -14.4093   H         1 RES1   0.0000
    64 C64     -8.8866  -4.6936 -11.7261   C.ar      1 RES1   0.0000
    65 H65     -9.9317  -4.6825 -11.4350   H         1 RES1   0.0000
@<TRIPOS>BOND
     1     1     5   ar
     2     1     6   ar
     3     1     2    1
     4     3     8   ar
     5     3     9   ar
     6     3     4    1
     7     5     9   ar
     8     5    11    1
     9     6     8   ar
    10     6     7    1
    11     8    12    1
    12     9    10    1
    13    11    20    2
    14    11    23    1
    15    13    14    1
    16    13    23   am
    17    13    24    1
    18    14    31    1
    19    14    34    1
    20    14    15    1
    21    16    24    1
    22    16    17    1
    23    16    18    1
    24    16    19    1
    25    20    21    1
    26    20    24    1
    27    21    40   ar
    28    21    45   ar
    29    22    23    2
    30    25    34    1
    31    25    37    1
    32    25    26    1
    33    25    27    1
    34    28    31    1
    35    28    37    1
    36    28    29    1
    37    28    30    1
    38    31    32    1
    39    31    33    1
    40    34    35    1
    41    34    36    1
    42    37    38    1
    43    37    39    1
    44    40    47   ar
    45    41    45   ar
    46    41    48   ar
    47    41    42    1
    48    43    47    1
    49    43    49    1
    50    43    44    1
    51    45    46    1
    52    47    48   ar
    53    49    51    1
    54    49    52    1
    55    49    50    1
    56    51    58   ar
    57    51    60   ar
    58    52    53    1
    59    52    54    1
    60    52    55    1
    61    56    62   ar
    62    56    64   ar
    63    56    57    1
    64    58    64   ar
    65    58    59    1
    66    60    62   ar
    67    60    61    1
    68    62    63    1
    69    64    65    1
@<TRIPOS>SUBSTRUCTURE
     1 RES1        1 GROUP             0 ****  ****    0  
@<TRIPOS>MOLECULE
LIGAND_00110
    65    69     1     0     0
SMALL
USER_CHARGES
****
Generated from the CSD

@<TRIPOS>ATOM
     1 C1      -2.8355  -4.3673 -16.3562   C.ar      1 RES1   0.0000
     2 H2      -3.4687  -5.2168 -16.5882   H         1 RES1   0.0000
     3 C3      -1.2607  -2.1771 -15.7604   C.ar      1 RES1   0.0000
     4 H4      -0.6513  -1.3104 -15.5268   H         1 RES1   0.0000
     5 C5      -1.8481  -4.4951 -15.3838   C.ar      1 RES1   0.0000
     6 C6      -3.0311  -3.1753 -17.0311   C.ar      1 RES1   0.0000
     7 H7      -3.7971  -3.0882 -17.7945   H         1 RES1   0.0000
     8 C8      -2.2379  -2.1094 -16.7121   C.ar      1 RES1   0.0000
     9 C9      -1.0664  -3.3780 -15.1028   C.ar      1 RES1   0.0000
    10 H10     -0.2838  -3.4453 -14.3558   H         1 RES1   0.0000
    11 C11     -1.6269  -5.7786 -14.6417   C.2       1 RES1   0.0000
    12 F12     -2.4283  -0.9324 -17.3680   F         1 RES1   0.0000
    13 N13     -1.2275  -7.9377 -14.1568   N.am      1 RES1   0.0000
    14 C14     -1.4824  -9.4110 -14.3017   C.3       1 RES1   0.0000
    15 H15     -1.1968  -9.7057 -15.3104   H         1 RES1   0.0000
    16 C16     -0.8628  -7.6843 -11.7813   C.3       1 RES1   0.0000
    17 H17     -1.4306  -8.4051 -11.1965   H         1 RES1   0.0000
    18 H18      0.0836  -8.1439 -12.0587   H         1 RES1   0.0000
    19 H19     -0.6502  -6.8255 -11.1481   H         1 RES1   0.0000
    20 C20     -1.7513  -5.9390 -13.3057   C.2       1 RES1   0.0000
    21 C21     -2.0254  -4.9138 -12.2663   C.ar      1 RES1   0.0000
    22 O22     -1.1931  -7.3975 -16.3900   O.2       1 RES1   0.0000
    23 C23     -1.3106  -7.0551 -15.2207   C.2       1 RES1   0.0000
    24 N24     -1.6113  -7.2770 -12.9708   N.3       1 RES1   0.0000
    25 C25     -0.8525 -11.6984 -13.4662   C.3       1 RES1   0.0000
    26 H26     -0.2634 -12.2317 -12.7215   H         1 RES1   0.0000
    27 H27     -0.5471 -12.0122 -14.4633   H         1 RES1   0.0000
    28 C28     -3.1735 -11.2667 -14.2268   C.3       1 RES1   0.0000
    29 H29     -2.9364 -11.5800 -15.2424   H         1 RES1   0.0000
    30 H30     -4.2163 -11.4941 -14.0108   H         1 RES1   0.0000
    31 C31     -2.9537  -9.7665 -14.1031   C.3       1 RES1   0.0000
    32 H32     -3.5486  -9.2558 -14.8589   H         1 RES1   0.0000
    33 H33     -3.2682  -9.4409 -13.1126   H         1 RES1   0.0000
    34 C34     -0.6248 -10.2043 -13.3150   C.3       1 RES1   0.0000
    35 H35     -0.8840  -9.9066 -12.3000   H         1 RES1   0.0000
    36 H36      0.4255  -9.9846 -13.5008   H         1 RES1   0.0000
    37 N37     -2.3018 -12.0088 -13.2691   N.4       1 RES1   1.0000
    38 H38     -2.5648 -11.7535 -12.3227   H         1 RES1   0.0000
    39 H39     -2.4437 -13.0049 -13.4027   H         1 RES1   0.0000
    40 N40     -1.1245  -3.9267 -12.1410   N.ar      1 RES1   0.0000
    41 C41     -3.2824  -3.9653 -10.5120   C.ar      1 RES1   0.0000
    42 H42     -4.1537  -3.9839  -9.8657   H         1 RES1   0.0000
    43 N43     -0.4373  -2.0325 -11.0465   N.pl3     1 RES1   0.0000
    44 H44      0.3944  -2.0661 -11.6361   H         1 RES1   0.0000
    45 C45     -3.1458  -4.9686 -11.4502   C.ar      1 RES1   0.0000
    46 H46     -3.8787  -5.7633 -11.5427   H         1 RES1   0.0000
    47 C47     -1.3484  -3.0085 -11.1872   C.ar      1 RES1   0.0000
    48 N48     -2.3988  -2.9712 -10.3544   N.ar      1 RES1   0.0000
    49 C49     -0.5319  -0.9592 -10.0572   C.3       1 RES1   0.0000
    50 H50     -1.0307  -1.3520  -9.1577   H         1 RES1   0.0000
    51 C51     -1.3229   0.2291 -10.5677   C.ar      1 RES1   0.0000
    52 C52      0.8875  -0.5475  -9.6845   C.3       1 RES1   0.0000
    53 H53      0.8768   0.2301  -8.9236   H         1 RES1   0.0000
    54 H54      1.4472  -1.3951  -9.2948   H         1 RES1   0.0000
    55 H55      1.4168  -0.1630 -10.5539   H         1 RES1   0.0000
    56 C56     -2.7719   2.4094 -11.5202   C.ar      1 RES1   0.0000
    57 H57     -3.3368   3.2582 -11.8911   H         1 RES1   0.0000
    58 C58     -1.3376   0.5356 -11.9208   C.ar      1 RES1   0.0000
    59 H59     -0.7776  -0.0811 -12.6160   H         1 RES1   0.0000
    60 C60     -2.0451   1.0356  -9.6988   C.ar      1 RES1   0.0000
    61 H61     -2.0472   0.8166  -8.6361   H         1 RES1   0.0000
    62 C62     -2.7651   2.1188 -10.1737   C.ar      1 RES1   0.0000
    63 H63     -3.3254   2.7399  -9.4829   H         1 RES1   0.0000
    64 C64     -2.0587   1.6186 -12.3940   C.ar      1 RES1   0.0000
    65 H65     -2.0619   1.8446 -13.4551   H         1 RES1   0.0000
@<TRIPOS>BOND
     1     1     5   ar
     2     1     6   ar
     3     1     2    1
     4     3     8   ar
     5     3     9   ar
     6     3     4    1
     7     5     9   ar
     8     5    11    1
     9     6     8   ar
    10     6     7    1
    11     8    12    1
    12     9    10    1
    13    11    20    2
    14    11    23    1
    15    13    14    1
    16    13    23   am
    17    13    24    1
    18    14    31    1
    19    14    34    1
    20    14    15    1
    21    16    24    1
    22    16    17    1
    23    16    18    1
    24    16    19    1
    25    20    21    1
    26    20    24    1
    27    21    40   ar
    28    21    45   ar
    29    22    23    2
    30    25    34    1
    31    25    37    1
    32    25    26    1
    33    25    27    1
    34    28    31    1
    35    28    37    1
    36    28    29    1
    37    28    30    1
    38    31    32    1
    39    31    33    1
    40    34    35    1
    41    34    36    1
    42    37    38    1
    43    37    39    1
    44    40    47   ar
    45    41    45   ar
    46    41    48   ar
    47    41    42    1
    48    43    47    1
    49    43    49    1
    50    43    44    1
    51    45    46    1
    52    47    48   ar
    53    49    51    1
    54    49    52    1
    55    49    50    1
    56    51    58   ar
    57    51    60   ar
    58    52    53    1
    59    52    54    1
    60    52    55    1
    61    56    62   ar
    62    56    64   ar
    63    56    57    1
    64    58    64   ar
    65    58    59    1
    66    60    62   ar
    67    60    61    1
    68    62    63    1
    69    64    65    1
@<TRIPOS>SUBSTRUCTURE
     1 RES1        1 GROUP             0 ****  ****    0  
@<TRIPOS>MOLECULE
LIGAND_00111
    65    69     1     0     0
SMALL
USER_CHARGES
****
Generated from the CSD

@<TRIPOS>ATOM
     1 C1      -3.0248  -3.8117 -15.3691   C.ar      1 RES1   0.0000
     2 H2      -3.8579  -4.2218 -14.8086   H         1 RES1   0.0000
     3 C3      -0.9094  -2.7260 -16.7756   C.ar      1 RES1   0.0000
     4 H4      -0.0813  -2.2894 -17.3241   H         1 RES1   0.0000
     5 C5      -1.8085  -4.4880 -15.3803   C.ar      1 RES1   0.0000
     6 C6      -3.1929  -2.6215 -16.0545   C.ar      1 RES1   0.0000
     7 H7      -4.1477  -2.1065 -16.0477   H         1 RES1   0.0000
     8 C8      -2.1271  -2.1087 -16.7387   C.ar      1 RES1   0.0000
     9 C9      -0.7584  -3.9218 -16.0977   C.ar      1 RES1   0.0000
    10 H10      0.2005  -4.4262 -16.1329   H         1 RES1   0.0000
    11 C11     -1.6101  -5.7761 -14.6397   C.2       1 RES1   0.0000
    12 F12     -2.2837  -0.9357 -17.4105   F         1 RES1   0.0000
    13 N13     -1.2406  -7.9410 -14.1570   N.am      1 RES1   0.0000
    14 C14     -1.5106  -9.4109 -14.3092   C.3       1 RES1   0.0000
    15 H15     -1.2172  -9.7059 -15.3156   H         1 RES1   0.0000
    16 C16     -0.8997  -7.6987 -11.7768   C.3       1 RES1   0.0000
    17 H17     -1.4821  -8.4148 -11.2007   H         1 RES1   0.0000
    18 H18      0.0445  -8.1681 -12.0450   H         1 RES1   0.0000
    19 H19     -0.6847  -6.8442 -11.1386   H         1 RES1   0.0000
    20 C20     -1.7513  -5.9390 -13.3057   C.2       1 RES1   0.0000
    21 C21     -2.0254  -4.9138 -12.2663   C.ar      1 RES1   0.0000
    22 O22     -1.1751  -7.3947 -16.3880   O.2       1 RES1   0.0000
    23 C23     -1.3018  -7.0544 -15.2191   C.2       1 RES1   0.0000
    24 N24     -1.6302  -7.2794 -12.9734   N.3       1 RES1   0.0000
    25 C25     -0.9158 -11.7077 -13.4739   C.3       1 RES1   0.0000
    26 H26     -0.3410 -12.2499 -12.7244   H         1 RES1   0.0000
    27 H27     -0.6031 -12.0220 -14.4685   H         1 RES1   0.0000
    28 C28     -3.2233 -11.2475 -14.2586   C.3       1 RES1   0.0000
    29 H29     -2.9786 -11.5605 -15.2726   H         1 RES1   0.0000
    30 H30     -4.2709 -11.4637 -14.0548   H         1 RES1   0.0000
    31 C31     -2.9879  -9.7502 -14.1279   C.3       1 RES1   0.0000
    32 H32     -3.5687  -9.2307 -14.8886   H         1 RES1   0.0000
    33 H33     -3.3096  -9.4241 -13.1399   H         1 RES1   0.0000
    34 C34     -0.6730 -10.2168 -13.3156   C.3       1 RES1   0.0000
    35 H35     -0.9399  -9.9192 -12.3026   H         1 RES1   0.0000
    36 H36      0.3817 -10.0084 -13.4891   H         1 RES1   0.0000
    37 N37     -2.3706 -12.0022 -13.2938   N.4       1 RES1   1.0000
    38 H38     -2.6412 -11.7468 -12.3494   H         1 RES1   0.0000
    39 H39     -2.5223 -12.9963 -13.4320   H         1 RES1   0.0000
    40 N40     -1.1245  -3.9267 -12.1410   N.ar      1 RES1   0.0000
    41 C41     -3.2824  -3.9653 -10.5120   C.ar      1 RES1   0.0000
    42 H42     -4.1537  -3.9839  -9.8657   H         1 RES1   0.0000
    43 N43     -0.4373  -2.0325 -11.0465   N.pl3     1 RES1   0.0000
    44 H44      0.3943  -2.0660 -11.6362   H         1 RES1   0.0000
    45 C45     -3.1458  -4.9686 -11.4502   C.ar      1 RES1   0.0000
    46 H46     -3.8787  -5.7633 -11.5427   H         1 RES1   0.0000
    47 C47     -1.3484  -3.0085 -11.1872   C.ar      1 RES1   0.0000
    48 N48     -2.3988  -2.9712 -10.3544   N.ar      1 RES1   0.0000
    49 C49     -0.5319  -0.9593 -10.0572   C.3       1 RES1   0.0000
    50 H50     -1.0304  -1.3522  -9.1575   H         1 RES1   0.0000
    51 C51     -1.3232   0.2290 -10.5674   C.ar      1 RES1   0.0000
    52 C52      0.8876  -0.5474  -9.6847   C.3       1 RES1   0.0000
    53 H53      0.8770   0.2302  -8.9238   H         1 RES1   0.0000
    54 H54      1.4475  -1.3950  -9.2952   H         1 RES1   0.0000
    55 H55      1.4166  -0.1628 -10.5542   H         1 RES1   0.0000
    56 C56     -2.7726   2.4091 -11.5195   C.ar      1 RES1   0.0000
    57 H57     -3.3377   3.2578 -11.8902   H         1 RES1   0.0000
    58 C58     -1.3381   0.5355 -11.9205   C.ar      1 RES1   0.0000
    59 H59     -0.7782  -0.0811 -12.6158   H         1 RES1   0.0000
    60 C60     -2.0452   1.0353  -9.6983   C.ar      1 RES1   0.0000
    61 H61     -2.0471   0.8163  -8.6357   H         1 RES1   0.0000
    62 C62     -2.7655   2.1184 -10.1730   C.ar      1 RES1   0.0000
    63 H63     -3.3258   2.7394  -9.4820   H         1 RES1   0.0000
    64 C64     -2.0595   1.6185 -12.3934   C.ar      1 RES1   0.0000
    65 H65     -2.0630   1.8445 -13.4545   H         1 RES1   0.0000
@<TRIPOS>BOND
     1     1     5   ar
     2     1     6   ar
     3     1     2    1
     4     3     8   ar
     5     3     9   ar
     6     3     4    1
     7     5     9   ar
     8     5    11    1
     9     6     8   ar
    10     6     7    1
    11     8    12    1
    12     9    10    1
    13    11    20    2
    14    11    23    1
    15    13    14    1
    16    13    23   am
    17    13    24    1
    18    14    31    1
    19    14    34    1
    20    14    15    1
    21    16    24    1
    22    16    17    1
    23    16    18    1
    24    16    19    1
    25    20    21    1
    26    20    24    1
    27    21    40   ar
    28    21    45   ar
    29    22    23    2
    30    25    34    1
    31    25    37    1
    32    25    26    1
    33    25    27    1
    34    28    31    1
    35    28    37    1
    36    28    29    1
    37    28    30    1
    38    31    32    1
    39    31    33    1
    40    34    35    1
    41    34    36    1
    42    37    38    1
    43    37    39    1
    44    40    47   ar
    45    41    45   ar
    46    41    48   ar
    47    41    42    1
    48    43    47    1
    49    43    49    1
    50    43    44    1
    51    45    46    1
    52    47    48   ar
    53    49    51    1
    54    49    52    1
    55    49    50    1
    56    51    58   ar
    57    51    60   ar
    58    52    53    1
    59    52    54    1
    60    52    55    1
    61    56    62   ar
    62    56    64   ar
    63    56    57    1
    64    58    64   ar
    65    58    59    1
    66    60    62   ar
    67    60    61    1
    68    62    63    1
    69    64    65    1
@<TRIPOS>SUBSTRUCTURE
     1 RES1        1 GROUP             0 ****  ****    0  
@<TRIPOS>MOLECULE
LIGAND_00112
    65    69     1     0     0
SMALL
USER_CHARGES
****
Generated from the CSD

@<TRIPOS>ATOM
     1 C1      -2.3150  -4.2026 -16.4165   C.ar      1 RES1   0.0000
     2 H2      -2.9882  -4.9822 -16.7563   H         1 RES1   0.0000
     3 C3      -0.6362  -2.1870 -15.5500   C.ar      1 RES1   0.0000
     4 H4       0.0148  -1.3880 -15.2109   H         1 RES1   0.0000
     5 C5      -1.4762  -4.4469 -15.3332   C.ar      1 RES1   0.0000
     6 C6      -2.3129  -2.9816 -17.0675   C.ar      1 RES1   0.0000
     7 H7      -2.9636  -2.8038 -17.9172   H         1 RES1   0.0000
     8 C8      -1.4731  -2.0039 -16.6136   C.ar      1 RES1   0.0000
     9 C9      -0.6383  -3.4163 -14.9167   C.ar      1 RES1   0.0000
    10 H10      0.0327  -3.5756 -14.0803   H         1 RES1   0.0000
    11 C11     -1.4701  -5.7631 -14.6157   C.2       1 RES1   0.0000
    12 F12     -1.4696  -0.7988 -17.2456   F         1 RES1   0.0000
    13 N13     -1.3518  -7.9629 -14.1648   N.am      1 RES1   0.0000
    14 C14     -1.7424  -9.3967 -14.3844   C.3       1 RES1   0.0000
    15 H15     -1.3953  -9.6938 -15.3729   H         1 RES1   0.0000
    16 C16     -1.2163  -7.8033 -11.7572   C.3       1 RES1   0.0000
    17 H17     -1.9021  -8.4965 -11.2745   H         1 RES1   0.0000
    18 H18     -0.2824  -8.3282 -11.9474   H         1 RES1   0.0000
    19 H19     -1.0131  -6.9892 -11.0647   H         1 RES1   0.0000
    20 C20     -1.7513  -5.9390 -13.3057   C.2       1 RES1   0.0000
    21 C21     -2.0254  -4.9138 -12.2663   C.ar      1 RES1   0.0000
    22 O22     -1.0250  -7.3797 -16.3633   O.2       1 RES1   0.0000
    23 C23     -1.2292  -7.0528 -15.2015   C.2       1 RES1   0.0000
    24 N24     -1.7880  -7.2914 -13.0032   N.3       1 RES1   0.0000
    25 C25     -1.4325 -11.7587 -13.5770   C.3       1 RES1   0.0000
    26 H26     -0.9740 -12.3703 -12.8014   H         1 RES1   0.0000
    27 H27     -1.0690 -12.0771 -14.5528   H         1 RES1   0.0000
    28 C28     -3.6151 -11.0643 -14.5289   C.3       1 RES1   0.0000
    29 H29     -3.3174 -11.3746 -15.5294   H         1 RES1   0.0000
    30 H30     -4.6915 -11.1856 -14.4165   H         1 RES1   0.0000
    31 C31     -3.2546  -9.5994 -14.3326   C.3       1 RES1   0.0000
    32 H32     -3.7203  -9.0094 -15.1206   H         1 RES1   0.0000
    33 H33     -3.6254  -9.2682 -13.3638   H         1 RES1   0.0000
    34 C34     -1.0675 -10.3015 -13.3528   C.3       1 RES1   0.0000
    35 H35     -1.3886 -10.0043 -12.3556   H         1 RES1   0.0000
    36 H36      0.0126 -10.1894 -13.4348   H         1 RES1   0.0000
    37 N37     -2.9182 -11.9189 -13.5232   N.4       1 RES1   1.0000
    38 H38     -3.2412 -11.6617 -12.5960   H         1 RES1   0.0000
    39 H39     -3.1487 -12.8906 -13.7044   H         1 RES1   0.0000
    40 N40     -3.1660  -4.2176 -12.3926   N.ar      1 RES1   0.0000
    41 C41     -1.5085  -3.6809 -10.3247   C.ar      1 RES1   0.0000
    42 H42     -0.8414  -3.4750  -9.4941   H         1 RES1   0.0000
    43 N43     -4.5422  -2.5584 -11.6104   N.pl3     1 RES1   0.0000
    44 H44     -5.1269  -2.7418 -12.4257   H         1 RES1   0.0000
    45 C45     -1.1491  -4.6689 -11.2192   C.ar      1 RES1   0.0000
    46 H46     -0.2241  -5.2252 -11.1095   H         1 RES1   0.0000
    47 C47     -3.4120  -3.2702 -11.4733   C.ar      1 RES1   0.0000
    48 N48     -2.6338  -2.9618 -10.4257   N.ar      1 RES1   0.0000
    49 C49     -4.9555  -1.4929 -10.6975   C.3       1 RES1   0.0000
    50 H50     -4.0551  -0.9887 -10.3136   H         1 RES1   0.0000
    51 C51     -5.7538  -2.0177  -9.5203   C.ar      1 RES1   0.0000
    52 C52     -5.7703  -0.4860 -11.5009   C.3       1 RES1   0.0000
    53 H53     -6.0779   0.3491 -10.8751   H         1 RES1   0.0000
    54 H54     -5.1885  -0.0909 -12.3311   H         1 RES1   0.0000
    55 H55     -6.6655  -0.9526 -11.9066   H         1 RES1   0.0000
    56 C56     -7.2259  -2.9936  -7.3661   C.ar      1 RES1   0.0000
    57 H57     -7.7987  -3.3740  -6.5268   H         1 RES1   0.0000
    58 C58     -6.5381  -3.1545  -9.6530   C.ar      1 RES1   0.0000
    59 H59     -6.5788  -3.6690 -10.6074   H         1 RES1   0.0000
    60 C60     -5.7213  -1.3761  -8.2898   C.ar      1 RES1   0.0000
    61 H61     -5.1166  -0.4844  -8.1625   H         1 RES1   0.0000
    62 C62     -6.4533  -1.8626  -7.2198   C.ar      1 RES1   0.0000
    63 H63     -6.4178  -1.3511  -6.2637   H         1 RES1   0.0000
    64 C64     -7.2687  -3.6399  -8.5819   C.ar      1 RES1   0.0000
    65 H65     -7.8761  -4.5310  -8.7006   H         1 RES1   0.0000
@<TRIPOS>BOND
     1     1     5   ar
     2     1     6   ar
     3     1     2    1
     4     3     8   ar
     5     3     9   ar
     6     3     4    1
     7     5     9   ar
     8     5    11    1
     9     6     8   ar
    10     6     7    1
    11     8    12    1
    12     9    10    1
    13    11    20    2
    14    11    23    1
    15    13    14    1
    16    13    23   am
    17    13    24    1
    18    14    31    1
    19    14    34    1
    20    14    15    1
    21    16    24    1
    22    16    17    1
    23    16    18    1
    24    16    19    1
    25    20    21    1
    26    20    24    1
    27    21    40   ar
    28    21    45   ar
    29    22    23    2
    30    25    34    1
    31    25    37    1
    32    25    26    1
    33    25    27    1
    34    28    31    1
    35    28    37    1
    36    28    29    1
    37    28    30    1
    38    31    32    1
    39    31    33    1
    40    34    35    1
    41    34    36    1
    42    37    38    1
    43    37    39    1
    44    40    47   ar
    45    41    45   ar
    46    41    48   ar
    47    41    42    1
    48    43    47    1
    49    43    49    1
    50    43    44    1
    51    45    46    1
    52    47    48   ar
    53    49    51    1
    54    49    52    1
    55    49    50    1
    56    51    58   ar
    57    51    60   ar
    58    52    53    1
    59    52    54    1
    60    52    55    1
    61    56    62   ar
    62    56    64   ar
    63    56    57    1
    64    58    64   ar
    65    58    59    1
    66    60    62   ar
    67    60    61    1
    68    62    63    1
    69    64    65    1
@<TRIPOS>SUBSTRUCTURE
     1 RES1        1 GROUP             0 ****  ****    0  
@<TRIPOS>MOLECULE
LIGAND_00113
    65    69     1     0     0
SMALL
USER_CHARGES
****
Generated from the CSD

@<TRIPOS>ATOM
     1 C1      -2.6194  -3.6574 -15.4141   C.ar      1 RES1   0.0000
     2 H2      -3.5365  -3.9972 -14.9449   H         1 RES1   0.0000
     3 C3      -0.2885  -2.7511 -16.5875   C.ar      1 RES1   0.0000
     4 H4       0.6249  -2.3848 -17.0444   H         1 RES1   0.0000
     5 C5      -1.4762  -4.4469 -15.3332   C.ar      1 RES1   0.0000
     6 C6      -2.6100  -2.4428 -16.0767   C.ar      1 RES1   0.0000
     7 H7      -3.5088  -1.8388 -16.1427   H         1 RES1   0.0000
     8 C8      -1.4411  -2.0207 -16.6446   C.ar      1 RES1   0.0000
     9 C9      -0.3148  -3.9695 -15.9340   C.ar      1 RES1   0.0000
    10 H10      0.5917  -4.5627 -15.8956   H         1 RES1   0.0000
    11 C11     -1.4700  -5.7631 -14.6156   C.2       1 RES1   0.0000
    12 F12     -1.4231  -0.8245 -17.2932   F         1 RES1   0.0000
    13 N13     -1.3518  -7.9629 -14.1648   N.am      1 RES1   0.0000
    14 C14     -1.7424  -9.3967 -14.3844   C.3       1 RES1   0.0000
    15 H15     -1.3953  -9.6938 -15.3729   H         1 RES1   0.0000
    16 C16     -1.2164  -7.8033 -11.7572   C.3       1 RES1   0.0000
    17 H17     -1.9021  -8.4965 -11.2745   H         1 RES1   0.0000
    18 H18     -0.2825  -8.3282 -11.9474   H         1 RES1   0.0000
    19 H19     -1.0131  -6.9892 -11.0646   H         1 RES1   0.0000
    20 C20     -1.7513  -5.9390 -13.3057   C.2       1 RES1   0.0000
    21 C21     -2.0254  -4.9138 -12.2663   C.ar      1 RES1   0.0000
    22 O22     -1.0249  -7.3797 -16.3633   O.2       1 RES1   0.0000
    23 C23     -1.2292  -7.0528 -15.2015   C.2       1 RES1   0.0000
    24 N24     -1.7880  -7.2914 -13.0032   N.3       1 RES1   0.0000
    25 C25     -1.4326 -11.7587 -13.5770   C.3       1 RES1   0.0000
    26 H26     -0.9741 -12.3704 -12.8014   H         1 RES1   0.0000
    27 H27     -1.0691 -12.0771 -14.5528   H         1 RES1   0.0000
    28 C28     -3.6152 -11.0642 -14.5290   C.3       1 RES1   0.0000
    29 H29     -3.3174 -11.3746 -15.5294   H         1 RES1   0.0000
    30 H30     -4.6916 -11.1855 -14.4166   H         1 RES1   0.0000
    31 C31     -3.2547  -9.5994 -14.3327   C.3       1 RES1   0.0000
    32 H32     -3.7203  -9.0093 -15.1206   H         1 RES1   0.0000
    33 H33     -3.6255  -9.2681 -13.3638   H         1 RES1   0.0000
    34 C34     -1.0675 -10.3015 -13.3528   C.3       1 RES1   0.0000
    35 H35     -1.3887 -10.0043 -12.3556   H         1 RES1   0.0000
    36 H36      0.0126 -10.1894 -13.4348   H         1 RES1   0.0000
    37 N37     -2.9183 -11.9189 -13.5232   N.4       1 RES1   1.0000
    38 H38     -3.2413 -11.6617 -12.5960   H         1 RES1   0.0000
    39 H39     -3.1488 -12.8906 -13.7044   H         1 RES1   0.0000
    40 N40     -3.1660  -4.2176 -12.3926   N.ar      1 RES1   0.0000
    41 C41     -1.5085  -3.6809 -10.3247   C.ar      1 RES1   0.0000
    42 H42     -0.8414  -3.4750  -9.4941   H         1 RES1   0.0000
    43 N43     -4.5422  -2.5584 -11.6104   N.pl3     1 RES1   0.0000
    44 H44     -5.1269  -2.7418 -12.4257   H         1 RES1   0.0000
    45 C45     -1.1491  -4.6689 -11.2192   C.ar      1 RES1   0.0000
    46 H46     -0.2241  -5.2252 -11.1095   H         1 RES1   0.0000
    47 C47     -3.4120  -3.2702 -11.4733   C.ar      1 RES1   0.0000
    48 N48     -2.6338  -2.9618 -10.4257   N.ar      1 RES1   0.0000
    49 C49     -4.9555  -1.4929 -10.6975   C.3       1 RES1   0.0000
    50 H50     -4.0551  -0.9888 -10.3134   H         1 RES1   0.0000
    51 C51     -5.7540  -2.0178  -9.5204   C.ar      1 RES1   0.0000
    52 C52     -5.7702  -0.4859 -11.5009   C.3       1 RES1   0.0000
    53 H53     -6.0778   0.3492 -10.8750   H         1 RES1   0.0000
    54 H54     -5.1883  -0.0908 -12.3310   H         1 RES1   0.0000
    55 H55     -6.6654  -0.9524 -11.9067   H         1 RES1   0.0000
    56 C56     -7.2264  -2.9938  -7.3664   C.ar      1 RES1   0.0000
    57 H57     -7.7992  -3.3742  -6.5272   H         1 RES1   0.0000
    58 C58     -6.5383  -3.1545  -9.6533   C.ar      1 RES1   0.0000
    59 H59     -6.5789  -3.6689 -10.6077   H         1 RES1   0.0000
    60 C60     -5.7216  -1.3763  -8.2898   C.ar      1 RES1   0.0000
    61 H61     -5.1168  -0.4846  -8.1624   H         1 RES1   0.0000
    62 C62     -6.4537  -1.8628  -7.2200   C.ar      1 RES1   0.0000
    63 H63     -6.4183  -1.3514  -6.2638   H         1 RES1   0.0000
    64 C64     -7.2691  -3.6399  -8.5822   C.ar      1 RES1   0.0000
    65 H65     -7.8765  -4.5310  -8.7011   H         1 RES1   0.0000
@<TRIPOS>BOND
     1     1     5   ar
     2     1     6   ar
     3     1     2    1
     4     3     8   ar
     5     3     9   ar
     6     3     4    1
     7     5     9   ar
     8     5    11    1
     9     6     8   ar
    10     6     7    1
    11     8    12    1
    12     9    10    1
    13    11    20    2
    14    11    23    1
    15    13    14    1
    16    13    23   am
    17    13    24    1
    18    14    31    1
    19    14    34    1
    20    14    15    1
    21    16    24    1
    22    16    17    1
    23    16    18    1
    24    16    19    1
    25    20    21    1
    26    20    24    1
    27    21    40   ar
    28    21    45   ar
    29    22    23    2
    30    25    34    1
    31    25    37    1
    32    25    26    1
    33    25    27    1
    34    28    31    1
    35    28    37    1
    36    28    29    1
    37    28    30    1
    38    31    32    1
    39    31    33    1
    40    34    35    1
    41    34    36    1
    42    37    38    1
    43    37    39    1
    44    40    47   ar
    45    41    45   ar
    46    41    48   ar
    47    41    42    1
    48    43    47    1
    49    43    49    1
    50    43    44    1
    51    45    46    1
    52    47    48   ar
    53    49    51    1
    54    49    52    1
    55    49    50    1
    56    51    58   ar
    57    51    60   ar
    58    52    53    1
    59    52    54    1
    60    52    55    1
    61    56    62   ar
    62    56    64   ar
    63    56    57    1
    64    58    64   ar
    65    58    59    1
    66    60    62   ar
    67    60    61    1
    68    62    63    1
    69    64    65    1
@<TRIPOS>SUBSTRUCTURE
     1 RES1        1 GROUP             0 ****  ****    0  
@<TRIPOS>MOLECULE
LIGAND_00114
    65    69     1     0     0
SMALL
USER_CHARGES
****
Generated from the CSD

@<TRIPOS>ATOM
     1 C1      -2.7105  -3.7024 -15.4393   C.ar      1 RES1   0.0000
     2 H2      -3.6196  -4.0709 -14.9765   H         1 RES1   0.0000
     3 C3      -0.4013  -2.7229 -16.5969   C.ar      1 RES1   0.0000
     4 H4       0.5032  -2.3279 -17.0477   H         1 RES1   0.0000
     5 C5      -1.5420  -4.4524 -15.3451   C.ar      1 RES1   0.0000
     6 C6      -2.7363  -2.4910 -16.1075   C.ar      1 RES1   0.0000
     7 H7      -3.6543  -1.9180 -16.1839   H         1 RES1   0.0000
     8 C8      -1.5773  -2.0321 -16.6672   C.ar      1 RES1   0.0000
     9 C9      -0.3922  -3.9387 -15.9381   C.ar      1 RES1   0.0000
    10 H10      0.5335  -4.5008 -15.8893   H         1 RES1   0.0000
    11 C11     -1.4977  -5.7645 -14.6215   C.2       1 RES1   0.0000
    12 F12     -1.5940  -0.8388 -17.3212   F         1 RES1   0.0000
    13 N13     -1.3297  -7.9594 -14.1624   N.am      1 RES1   0.0000
    14 C14     -1.6971  -9.4014 -14.3678   C.3       1 RES1   0.0000
    15 H15     -1.3541  -9.6998 -15.3573   H         1 RES1   0.0000
    16 C16     -1.1527  -7.7849 -11.7585   C.3       1 RES1   0.0000
    17 H17     -1.8261  -8.4700 -11.2476   H         1 RES1   0.0000
    18 H18     -0.2248  -8.3141 -11.9659   H         1 RES1   0.0000
    19 H19     -0.9300  -6.9612 -11.0836   H         1 RES1   0.0000
    20 C20     -1.7513  -5.9390 -13.3057   C.2       1 RES1   0.0000
    21 C21     -2.0254  -4.9138 -12.2663   C.ar      1 RES1   0.0000
    22 O22     -1.0546  -7.3815 -16.3693   O.2       1 RES1   0.0000
    23 C23     -1.2434  -7.0526 -15.2055   C.2       1 RES1   0.0000
    24 N24     -1.7569  -7.2903 -12.9961   N.3       1 RES1   0.0000
    25 C25     -1.3385 -11.7515 -13.5461   C.3       1 RES1   0.0000
    26 H26     -0.8622 -12.3493 -12.7704   H         1 RES1   0.0000
    27 H27     -0.9785 -12.0709 -14.5230   H         1 RES1   0.0000
    28 C28     -3.5417 -11.1024 -14.4825   C.3       1 RES1   0.0000
    29 H29     -3.2478 -11.4150 -15.4834   H         1 RES1   0.0000
    30 H30     -4.6147 -11.2416 -14.3591   H         1 RES1   0.0000
    31 C31     -3.2050  -9.6301 -14.3003   C.3       1 RES1   0.0000
    32 H32     -3.6882  -9.0541 -15.0882   H         1 RES1   0.0000
    33 H33     -3.5726  -9.2981 -13.3305   H         1 RES1   0.0000
    34 C34     -0.9969 -10.2866 -13.3360   C.3       1 RES1   0.0000
    35 H35     -1.3140  -9.9876 -12.3380   H         1 RES1   0.0000
    36 H36      0.0802 -10.1563 -13.4290   H         1 RES1   0.0000
    37 N37     -2.8206 -11.9372 -13.4772   N.4       1 RES1   1.0000
    38 H38     -3.1394 -11.6788 -12.5489   H         1 RES1   0.0000
    39 H39     -3.0358 -12.9142 -13.6490   H         1 RES1   0.0000
    40 N40     -1.1072  -4.7783 -11.2966   N.ar      1 RES1   0.0000
    41 C41     -3.3226  -3.2287 -11.2491   C.ar      1 RES1   0.0000
    42 H42     -4.2112  -2.6061 -11.2397   H         1 RES1   0.0000
    43 N43     -0.4495  -3.7510  -9.3549   N.pl3     1 RES1   0.0000
    44 H44     -0.6051  -3.0341  -8.6463   H         1 RES1   0.0000
    45 C45     -3.1749  -4.1373 -12.2777   C.ar      1 RES1   0.0000
    46 H46     -3.9235  -4.2406 -13.0562   H         1 RES1   0.0000
    47 C47     -1.3567  -3.8727 -10.3371   C.ar      1 RES1   0.0000
    48 N48     -2.4311  -3.0737 -10.2618   N.ar      1 RES1   0.0000
    49 C49      0.7798  -4.5394  -9.2723   C.3       1 RES1   0.0000
    50 H50      1.1297  -4.7549 -10.2938   H         1 RES1   0.0000
    51 C51      0.5757  -5.8537  -8.5447   C.ar      1 RES1   0.0000
    52 C52      1.8296  -3.6867  -8.5694   C.3       1 RES1   0.0000
    53 H53      2.7790  -4.2147  -8.5091   H         1 RES1   0.0000
    54 H54      1.9940  -2.7543  -9.1056   H         1 RES1   0.0000
    55 H55      1.5126  -3.4439  -7.5573   H         1 RES1   0.0000
    56 C56      0.2155  -8.2722  -7.2099   C.ar      1 RES1   0.0000
    57 H57      0.0753  -9.2137  -6.6893   H         1 RES1   0.0000
    58 C58      1.6345  -6.7333  -8.3706   C.ar      1 RES1   0.0000
    59 H59      2.6142  -6.4761  -8.7595   H         1 RES1   0.0000
    60 C60     -0.6683  -6.2076  -8.0405   C.ar      1 RES1   0.0000
    61 H61     -1.5116  -5.5367  -8.1660   H         1 RES1   0.0000
    62 C62     -0.8457  -7.4099  -7.3769   C.ar      1 RES1   0.0000
    63 H63     -1.8235  -7.6730  -6.9875   H         1 RES1   0.0000
    64 C64      1.4554  -7.9347  -7.7062   C.ar      1 RES1   0.0000
    65 H65      2.2934  -8.6113  -7.5763   H         1 RES1   0.0000
@<TRIPOS>BOND
     1     1     5   ar
     2     1     6   ar
     3     1     2    1
     4     3     8   ar
     5     3     9   ar
     6     3     4    1
     7     5     9   ar
     8     5    11    1
     9     6     8   ar
    10     6     7    1
    11     8    12    1
    12     9    10    1
    13    11    20    2
    14    11    23    1
    15    13    14    1
    16    13    23   am
    17    13    24    1
    18    14    31    1
    19    14    34    1
    20    14    15    1
    21    16    24    1
    22    16    17    1
    23    16    18    1
    24    16    19    1
    25    20    21    1
    26    20    24    1
    27    21    40   ar
    28    21    45   ar
    29    22    23    2
    30    25    34    1
    31    25    37    1
    32    25    26    1
    33    25    27    1
    34    28    31    1
    35    28    37    1
    36    28    29    1
    37    28    30    1
    38    31    32    1
    39    31    33    1
    40    34    35    1
    41    34    36    1
    42    37    38    1
    43    37    39    1
    44    40    47   ar
    45    41    45   ar
    46    41    48   ar
    47    41    42    1
    48    43    47    1
    49    43    49    1
    50    43    44    1
    51    45    46    1
    52    47    48   ar
    53    49    51    1
    54    49    52    1
    55    49    50    1
    56    51    58   ar
    57    51    60   ar
    58    52    53    1
    59    52    54    1
    60    52    55    1
    61    56    62   ar
    62    56    64   ar
    63    56    57    1
    64    58    64   ar
    65    58    59    1
    66    60    62   ar
    67    60    61    1
    68    62    63    1
    69    64    65    1
@<TRIPOS>SUBSTRUCTURE
     1 RES1        1 GROUP             0 ****  ****    0  
@<TRIPOS>MOLECULE
LIGAND_00115
    65    69     1     0     0
SMALL
USER_CHARGES
****
Generated from the CSD

@<TRIPOS>ATOM
     1 C1      -3.0248  -3.8117 -15.3691   C.ar      1 RES1   0.0000
     2 H2      -3.8579  -4.2218 -14.8086   H         1 RES1   0.0000
     3 C3      -0.9094  -2.7260 -16.7756   C.ar      1 RES1   0.0000
     4 H4      -0.0813  -2.2894 -17.3241   H         1 RES1   0.0000
     5 C5      -1.8085  -4.4880 -15.3803   C.ar      1 RES1   0.0000
     6 C6      -3.1929  -2.6215 -16.0545   C.ar      1 RES1   0.0000
     7 H7      -4.1477  -2.1065 -16.0477   H         1 RES1   0.0000
     8 C8      -2.1271  -2.1087 -16.7387   C.ar      1 RES1   0.0000
     9 C9      -0.7584  -3.9218 -16.0977   C.ar      1 RES1   0.0000
    10 H10      0.2005  -4.4262 -16.1329   H         1 RES1   0.0000
    11 C11     -1.6101  -5.7761 -14.6397   C.2       1 RES1   0.0000
    12 F12     -2.2837  -0.9357 -17.4105   F         1 RES1   0.0000
    13 N13     -1.2406  -7.9410 -14.1570   N.am      1 RES1   0.0000
    14 C14     -1.5106  -9.4109 -14.3092   C.3       1 RES1   0.0000
    15 H15     -1.2171  -9.7059 -15.3156   H         1 RES1   0.0000
    16 C16     -0.8997  -7.6987 -11.7768   C.3       1 RES1   0.0000
    17 H17     -1.4822  -8.4146 -11.2005   H         1 RES1   0.0000
    18 H18      0.0444  -8.1684 -12.0450   H         1 RES1   0.0000
    19 H19     -0.6845  -6.8442 -11.1387   H         1 RES1   0.0000
    20 C20     -1.7513  -5.9390 -13.3057   C.2       1 RES1   0.0000
    21 C21     -2.0254  -4.9138 -12.2663   C.ar      1 RES1   0.0000
    22 O22     -1.1751  -7.3947 -16.3880   O.2       1 RES1   0.0000
    23 C23     -1.3018  -7.0544 -15.2191   C.2       1 RES1   0.0000
    24 N24     -1.6302  -7.2794 -12.9734   N.3       1 RES1   0.0000
    25 C25     -0.9160 -11.7077 -13.4737   C.3       1 RES1   0.0000
    26 H26     -0.3413 -12.2498 -12.7242   H         1 RES1   0.0000
    27 H27     -0.6031 -12.0220 -14.4683   H         1 RES1   0.0000
    28 C28     -3.2233 -11.2475 -14.2588   C.3       1 RES1   0.0000
    29 H29     -2.9785 -11.5605 -15.2727   H         1 RES1   0.0000
    30 H30     -4.2710 -11.4637 -14.0552   H         1 RES1   0.0000
    31 C31     -2.9880  -9.7502 -14.1281   C.3       1 RES1   0.0000
    32 H32     -3.5686  -9.2307 -14.8889   H         1 RES1   0.0000
    33 H33     -3.3098  -9.4240 -13.1402   H         1 RES1   0.0000
    34 C34     -0.6731 -10.2168 -13.3154   C.3       1 RES1   0.0000
    35 H35     -0.9402  -9.9191 -12.3025   H         1 RES1   0.0000
    36 H36      0.3816 -10.0085 -13.4888   H         1 RES1   0.0000
    37 N37     -2.3708 -12.0022 -13.2938   N.4       1 RES1   1.0000
    38 H38     -2.6415 -11.7467 -12.3495   H         1 RES1   0.0000
    39 H39     -2.5225 -12.9962 -13.4320   H         1 RES1   0.0000
    40 N40     -3.1488  -5.0691 -11.5482   N.ar      1 RES1   0.0000
    41 C41     -1.5487  -2.9443 -11.0618   C.ar      1 RES1   0.0000
    42 H42     -0.8989  -2.0972 -10.8681   H         1 RES1   0.0000
    43 N43     -4.5543  -4.2769  -9.9188   N.pl3     1 RES1   0.0000
    44 H44     -4.7477  -3.5991  -9.1815   H         1 RES1   0.0000
    45 C45     -1.1781  -3.8376 -12.0468   C.ar      1 RES1   0.0000
    46 H46     -0.2689  -3.7025 -12.6231   H         1 RES1   0.0000
    47 C47     -3.4203  -4.1344 -10.6232   C.ar      1 RES1   0.0000
    48 N48     -2.6660  -3.0643 -10.3331   N.ar      1 RES1   0.0000
    49 C49     -5.4988  -5.3791 -10.0999   C.3       1 RES1   0.0000
    50 H50     -4.9369  -6.2809 -10.3886   H         1 RES1   0.0000
    51 C51     -6.5283  -5.0874 -11.1739   C.ar      1 RES1   0.0000
    52 C52     -6.1724  -5.6362  -8.7570   C.3       1 RES1   0.0000
    53 H53     -6.8654  -6.4720  -8.8263   H         1 RES1   0.0000
    54 H54     -5.4350  -5.8700  -7.9920   H         1 RES1   0.0000
    55 H55     -6.7302  -4.7600  -8.4331   H         1 RES1   0.0000
    56 C56     -8.4266  -4.5653 -13.1448   C.ar      1 RES1   0.0000
    57 H57     -9.1663  -4.3616 -13.9119   H         1 RES1   0.0000
    58 C58     -7.5063  -6.0217 -11.4831   C.ar      1 RES1   0.0000
    59 H59     -7.5317  -6.9670 -10.9512   H         1 RES1   0.0000
    60 C60     -6.5158  -3.8871 -11.8711   C.ar      1 RES1   0.0000
    61 H61     -5.7595  -3.1420 -11.6479   H         1 RES1   0.0000
    62 C62     -7.4602  -3.6289 -12.8502   C.ar      1 RES1   0.0000
    63 H63     -7.4386  -2.6860 -13.3865   H         1 RES1   0.0000
    64 C64     -8.4503  -5.7614 -12.4619   C.ar      1 RES1   0.0000
    65 H65     -9.2100  -6.5012 -12.6912   H         1 RES1   0.0000
@<TRIPOS>BOND
     1     1     5   ar
     2     1     6   ar
     3     1     2    1
     4     3     8   ar
     5     3     9   ar
     6     3     4    1
     7     5     9   ar
     8     5    11    1
     9     6     8   ar
    10     6     7    1
    11     8    12    1
    12     9    10    1
    13    11    20    2
    14    11    23    1
    15    13    14    1
    16    13    23   am
    17    13    24    1
    18    14    31    1
    19    14    34    1
    20    14    15    1
    21    16    24    1
    22    16    17    1
    23    16    18    1
    24    16    19    1
    25    20    21    1
    26    20    24    1
    27    21    40   ar
    28    21    45   ar
    29    22    23    2
    30    25    34    1
    31    25    37    1
    32    25    26    1
    33    25    27    1
    34    28    31    1
    35    28    37    1
    36    28    29    1
    37    28    30    1
    38    31    32    1
    39    31    33    1
    40    34    35    1
    41    34    36    1
    42    37    38    1
    43    37    39    1
    44    40    47   ar
    45    41    45   ar
    46    41    48   ar
    47    41    42    1
    48    43    47    1
    49    43    49    1
    50    43    44    1
    51    45    46    1
    52    47    48   ar
    53    49    51    1
    54    49    52    1
    55    49    50    1
    56    51    58   ar
    57    51    60   ar
    58    52    53    1
    59    52    54    1
    60    52    55    1
    61    56    62   ar
    62    56    64   ar
    63    56    57    1
    64    58    64   ar
    65    58    59    1
    66    60    62   ar
    67    60    61    1
    68    62    63    1
    69    64    65    1
@<TRIPOS>SUBSTRUCTURE
     1 RES1        1 GROUP             0 ****  ****    0  
@<TRIPOS>MOLECULE
LIGAND_00116
    65    69     1     0     0
SMALL
USER_CHARGES
****
Generated from the CSD

@<TRIPOS>ATOM
     1 C1      -3.0659  -4.4415 -16.2865   C.ar      1 RES1   0.0000
     2 H2      -3.6943  -5.3098 -16.4525   H         1 RES1   0.0000
     3 C3      -1.5034  -2.2042 -15.8564   C.ar      1 RES1   0.0000
     4 H4      -0.8990  -1.3192 -15.6872   H         1 RES1   0.0000
     5 C5      -2.0024  -4.5271 -15.3929   C.ar      1 RES1   0.0000
     6 C6      -3.3430  -3.2681 -16.9653   C.ar      1 RES1   0.0000
     7 H7      -4.1684  -3.2138 -17.6673   H         1 RES1   0.0000
     8 C8      -2.5536  -2.1780 -16.7291   C.ar      1 RES1   0.0000
     9 C9      -1.2288  -3.3870 -15.1946   C.ar      1 RES1   0.0000
    10 H10     -0.3885  -3.4213 -14.5106   H         1 RES1   0.0000
    11 C11     -1.6923  -5.7902 -14.6475   C.2       1 RES1   0.0000
    12 F12     -2.8237  -1.0189 -17.3890   F         1 RES1   0.0000
    13 N13     -1.1764  -7.9233 -14.1576   N.am      1 RES1   0.0000
    14 C14     -1.3715  -9.4081 -14.2753   C.3       1 RES1   0.0000
    15 H15     -1.1171  -9.7027 -15.2924   H         1 RES1   0.0000
    16 C16     -0.7206  -7.6241 -11.8031   C.3       1 RES1   0.0000
    17 H17     -1.2298  -8.3617 -11.1863   H         1 RES1   0.0000
    18 H18      0.2324  -8.0451 -12.1169   H         1 RES1   0.0000
    19 H19     -0.5192  -6.7488 -11.1892   H         1 RES1   0.0000
    20 C20     -1.7513  -5.9390 -13.3057   C.2       1 RES1   0.0000
    21 C21     -2.0254  -4.9138 -12.2663   C.ar      1 RES1   0.0000
    22 O22     -1.2631  -7.4104 -16.3958   O.2       1 RES1   0.0000
    23 C23     -1.3448  -7.0587 -15.2262   C.2       1 RES1   0.0000
    24 N24     -1.5374  -7.2652 -12.9630   N.3       1 RES1   0.0000
    25 C25     -0.6047 -11.6548 -13.4438   C.3       1 RES1   0.0000
    26 H26      0.0393 -12.1522 -12.7200   H         1 RES1   0.0000
    27 H27     -0.3293 -11.9674 -14.4499   H         1 RES1   0.0000
    28 C28     -2.9735 -11.3353 -14.1064   C.3       1 RES1   0.0000
    29 H29     -2.7670 -11.6508 -15.1280   H         1 RES1   0.0000
    30 H30     -3.9948 -11.6057 -13.8424   H         1 RES1   0.0000
    31 C31     -2.8156  -9.8255 -14.0085   C.3       1 RES1   0.0000
    32 H32     -3.4649  -9.3511 -14.7429   H         1 RES1   0.0000
    33 H33     -3.1010  -9.5016 -13.0087   H         1 RES1   0.0000
    34 C34     -0.4375 -10.1504 -13.3187   C.3       1 RES1   0.0000
    35 H35     -0.6654  -9.8515 -12.2966   H         1 RES1   0.0000
    36 H36      0.5929  -9.8870 -13.5528   H         1 RES1   0.0000
    37 N37     -2.0289 -12.0261 -13.1800   N.4       1 RES1   1.0000
    38 H38     -2.2618 -11.7707 -12.2257   H         1 RES1   0.0000
    39 H39     -2.1319 -13.0292 -13.2966   H         1 RES1   0.0000
    40 N40     -3.1488  -5.0691 -11.5482   N.ar      1 RES1   0.0000
    41 C41     -1.5487  -2.9443 -11.0618   C.ar      1 RES1   0.0000
    42 H42     -0.8989  -2.0972 -10.8681   H         1 RES1   0.0000
    43 N43     -4.5543  -4.2769  -9.9188   N.pl3     1 RES1   0.0000
    44 H44     -4.7477  -3.5991  -9.1815   H         1 RES1   0.0000
    45 C45     -1.1781  -3.8376 -12.0468   C.ar      1 RES1   0.0000
    46 H46     -0.2689  -3.7025 -12.6231   H         1 RES1   0.0000
    47 C47     -3.4203  -4.1344 -10.6232   C.ar      1 RES1   0.0000
    48 N48     -2.6660  -3.0643 -10.3331   N.ar      1 RES1   0.0000
    49 C49     -5.4988  -5.3791 -10.0999   C.3       1 RES1   0.0000
    50 H50     -4.9369  -6.2809 -10.3886   H         1 RES1   0.0000
    51 C51     -6.5283  -5.0874 -11.1739   C.ar      1 RES1   0.0000
    52 C52     -6.1724  -5.6362  -8.7570   C.3       1 RES1   0.0000
    53 H53     -6.8654  -6.4720  -8.8263   H         1 RES1   0.0000
    54 H54     -5.4350  -5.8700  -7.9920   H         1 RES1   0.0000
    55 H55     -6.7302  -4.7600  -8.4331   H         1 RES1   0.0000
    56 C56     -8.4266  -4.5653 -13.1448   C.ar      1 RES1   0.0000
    57 H57     -9.1663  -4.3616 -13.9119   H         1 RES1   0.0000
    58 C58     -7.5064  -6.0217 -11.4831   C.ar      1 RES1   0.0000
    59 H59     -7.5317  -6.9670 -10.9511   H         1 RES1   0.0000
    60 C60     -6.5158  -3.8872 -11.8711   C.ar      1 RES1   0.0000
    61 H61     -5.7594  -3.1420 -11.6480   H         1 RES1   0.0000
    62 C62     -7.4602  -3.6289 -12.8502   C.ar      1 RES1   0.0000
    63 H63     -7.4385  -2.6861 -13.3866   H         1 RES1   0.0000
    64 C64     -8.4503  -5.7614 -12.4619   C.ar      1 RES1   0.0000
    65 H65     -9.2101  -6.5011 -12.6912   H         1 RES1   0.0000
@<TRIPOS>BOND
     1     1     5   ar
     2     1     6   ar
     3     1     2    1
     4     3     8   ar
     5     3     9   ar
     6     3     4    1
     7     5     9   ar
     8     5    11    1
     9     6     8   ar
    10     6     7    1
    11     8    12    1
    12     9    10    1
    13    11    20    2
    14    11    23    1
    15    13    14    1
    16    13    23   am
    17    13    24    1
    18    14    31    1
    19    14    34    1
    20    14    15    1
    21    16    24    1
    22    16    17    1
    23    16    18    1
    24    16    19    1
    25    20    21    1
    26    20    24    1
    27    21    40   ar
    28    21    45   ar
    29    22    23    2
    30    25    34    1
    31    25    37    1
    32    25    26    1
    33    25    27    1
    34    28    31    1
    35    28    37    1
    36    28    29    1
    37    28    30    1
    38    31    32    1
    39    31    33    1
    40    34    35    1
    41    34    36    1
    42    37    38    1
    43    37    39    1
    44    40    47   ar
    45    41    45   ar
    46    41    48   ar
    47    41    42    1
    48    43    47    1
    49    43    49    1
    50    43    44    1
    51    45    46    1
    52    47    48   ar
    53    49    51    1
    54    49    52    1
    55    49    50    1
    56    51    58   ar
    57    51    60   ar
    58    52    53    1
    59    52    54    1
    60    52    55    1
    61    56    62   ar
    62    56    64   ar
    63    56    57    1
    64    58    64   ar
    65    58    59    1
    66    60    62   ar
    67    60    61    1
    68    62    63    1
    69    64    65    1
@<TRIPOS>SUBSTRUCTURE
     1 RES1        1 GROUP             0 ****  ****    0  
@<TRIPOS>MOLECULE
LIGAND_00117
    65    69     1     0     0
SMALL
USER_CHARGES
****
Generated from the CSD

@<TRIPOS>ATOM
     1 C1      -1.4345  -3.4525 -15.0982   C.ar      1 RES1   0.0000
     2 H2      -2.4248  -3.6376 -14.6962   H         1 RES1   0.0000
     3 C3       1.0902  -2.9420 -16.0967   C.ar      1 RES1   0.0000
     4 H4       2.0816  -2.7314 -16.4839   H         1 RES1   0.0000
     5 C5      -0.4801  -4.4646 -15.0595   C.ar      1 RES1   0.0000
     6 C6      -1.1451  -2.2102 -15.6344   C.ar      1 RES1   0.0000
     7 H7      -1.8986  -1.4305 -15.6689   H         1 RES1   0.0000
     8 C8       0.1135  -1.9877 -16.1179   C.ar      1 RES1   0.0000
     9 C9       0.7839  -4.1836 -15.5705   C.ar      1 RES1   0.0000
    10 H10      1.5487  -4.9518 -15.5621   H         1 RES1   0.0000
    11 C11     -0.7777  -5.8140 -14.4784   C.2       1 RES1   0.0000
    12 F12      0.4068  -0.7665 -16.6418   F         1 RES1   0.0000
    13 N13     -1.0759  -7.9799 -14.0751   N.am      1 RES1   0.0000
    14 C14     -1.1218  -9.4800 -14.1393   C.3       1 RES1   0.0000
    15 H15     -0.8027  -9.7855 -15.1347   H         1 RES1   0.0000
    16 C16     -1.5286  -7.8834 -11.5925   C.3       1 RES1   0.0000
    17 H17     -2.0816  -7.2262 -10.9246   H         1 RES1   0.0000
    18 H18     -2.0773  -8.8192 -11.6773   H         1 RES1   0.0000
    19 H19     -0.5635  -8.0959 -11.1376   H         1 RES1   0.0000
    20 C20     -1.1594  -5.9688 -13.1688   C.2       1 RES1   0.0000
    21 C21     -1.4160  -4.9157 -12.1531   C.ar      1 RES1   0.0000
    22 O22     -0.4339  -7.4929 -16.1830   O.2       1 RES1   0.0000
    23 C23     -0.7293  -7.1170 -15.0562   C.2       1 RES1   0.0000
    24 N24     -1.3555  -7.2616 -12.9058   N.pl3     1 RES1   0.0000
    25 C25     -0.1723 -11.6084 -13.1930   C.3       1 RES1   0.0000
    26 H26      0.4896 -12.0131 -12.4289   H         1 RES1   0.0000
    27 H27      0.1691 -11.9293 -14.1761   H         1 RES1   0.0000
    28 C28     -2.5348 -11.5476 -13.9462   C.3       1 RES1   0.0000
    29 H29     -2.2611 -11.8787 -14.9469   H         1 RES1   0.0000
    30 H30     -3.5342 -11.9071 -13.7055   H         1 RES1   0.0000
    31 C31     -2.5275 -10.0270 -13.9040   C.3       1 RES1   0.0000
    32 H32     -3.1921  -9.6461 -14.6780   H         1 RES1   0.0000
    33 H33     -2.8797  -9.6961 -12.9281   H         1 RES1   0.0000
    34 C34     -0.1563 -10.0912 -13.1232   C.3       1 RES1   0.0000
    35 H35     -0.4497  -9.7787 -12.1221   H         1 RES1   0.0000
    36 H36      0.8517  -9.7367 -13.3334   H         1 RES1   0.0000
    37 N37     -1.5626 -12.1078 -12.9619   N.4       1 RES1   1.0000
    38 H38     -1.8542 -11.8415 -12.0269   H         1 RES1   0.0000
    39 H39     -1.5637 -13.1197 -13.0413   H         1 RES1   0.0000
    40 N40     -0.5363  -3.9033 -12.0992   N.ar      1 RES1   0.0000
    41 C41     -2.6224  -3.9386 -10.3792   C.ar      1 RES1   0.0000
    42 H42     -3.4652  -3.9562  -9.6960   H         1 RES1   0.0000
    43 N43      0.1472  -1.9567 -11.0984   N.pl3     1 RES1   0.0000
    44 H44      0.9626  -1.9986 -11.7097   H         1 RES1   0.0000
    45 C45     -2.4995  -4.9698 -11.2885   C.ar      1 RES1   0.0000
    46 H46     -3.2150  -5.7847 -11.3233   H         1 RES1   0.0000
    47 C47     -0.7437  -2.9588 -11.1676   C.ar      1 RES1   0.0000
    48 N48     -1.7589  -2.9185 -10.2924   N.ar      1 RES1   0.0000
    49 C49      0.0543  -0.8410 -10.1570   C.3       1 RES1   0.0000
    50 H50      0.0853  -1.2413  -9.1318   H         1 RES1   0.0000
    51 C51     -1.2259  -0.0468 -10.3266   C.ar      1 RES1   0.0000
    52 C52      1.2759   0.0457 -10.3689   C.3       1 RES1   0.0000
    53 H53      1.2748   0.8784  -9.6688   H         1 RES1   0.0000
    54 H54      2.1945  -0.5187 -10.2226   H         1 RES1   0.0000
    55 H55      1.2851   0.4521 -11.3781   H         1 RES1   0.0000
    56 C56     -3.5785   1.4088 -10.6533   C.ar      1 RES1   0.0000
    57 H57     -4.4951   1.9752 -10.7802   H         1 RES1   0.0000
    58 C58     -1.8362   0.0470 -11.5691   C.ar      1 RES1   0.0000
    59 H59     -1.3914  -0.4521 -12.4236   H         1 RES1   0.0000
    60 C60     -1.8133   0.6036  -9.2501   C.ar      1 RES1   0.0000
    61 H61     -1.3534   0.5460  -8.2691   H         1 RES1   0.0000
    62 C62     -2.9829   1.3264  -9.4139   C.ar      1 RES1   0.0000
    63 H63     -3.4311   1.8291  -8.5633   H         1 RES1   0.0000
    64 C64     -3.0060   0.7697 -11.7308   C.ar      1 RES1   0.0000
    65 H65     -3.4724   0.8324 -12.7084   H         1 RES1   0.0000
@<TRIPOS>BOND
     1     1     5   ar
     2     1     6   ar
     3     1     2    1
     4     3     8   ar
     5     3     9   ar
     6     3     4    1
     7     5     9   ar
     8     5    11    1
     9     6     8   ar
    10     6     7    1
    11     8    12    1
    12     9    10    1
    13    11    20    2
    14    11    23    1
    15    13    14    1
    16    13    23   am
    17    13    24    1
    18    14    31    1
    19    14    34    1
    20    14    15    1
    21    16    24    1
    22    16    17    1
    23    16    18    1
    24    16    19    1
    25    20    21    1
    26    20    24    1
    27    21    40   ar
    28    21    45   ar
    29    22    23    2
    30    25    34    1
    31    25    37    1
    32    25    26    1
    33    25    27    1
    34    28    31    1
    35    28    37    1
    36    28    29    1
    37    28    30    1
    38    31    32    1
    39    31    33    1
    40    34    35    1
    41    34    36    1
    42    37    38    1
    43    37    39    1
    44    40    47   ar
    45    41    45   ar
    46    41    48   ar
    47    41    42    1
    48    43    47    1
    49    43    49    1
    50    43    44    1
    51    45    46    1
    52    47    48   ar
    53    49    51    1
    54    49    52    1
    55    49    50    1
    56    51    58   ar
    57    51    60   ar
    58    52    53    1
    59    52    54    1
    60    52    55    1
    61    56    62   ar
    62    56    64   ar
    63    56    57    1
    64    58    64   ar
    65    58    59    1
    66    60    62   ar
    67    60    61    1
    68    62    63    1
    69    64    65    1
@<TRIPOS>SUBSTRUCTURE
     1 RES1        1 GROUP             0 ****  ****    0  
@<TRIPOS>MOLECULE
LIGAND_00118
    65    69     1     0     0
SMALL
USER_CHARGES
****
Generated from the CSD

@<TRIPOS>ATOM
     1 C1       0.1299  -3.9318 -15.8287   C.ar      1 RES1   0.0000
     2 H2      -0.6363  -4.2741 -16.5160   H         1 RES1   0.0000
     3 C3       2.0626  -3.0174 -14.0794   C.ar      1 RES1   0.0000
     4 H4       2.8181  -2.6477 -13.3940   H         1 RES1   0.0000
     5 C5       0.3673  -4.6455 -14.6578   C.ar      1 RES1   0.0000
     6 C6       0.8480  -2.7889 -16.1332   C.ar      1 RES1   0.0000
     7 H7       0.6624  -2.2446 -17.0532   H         1 RES1   0.0000
     8 C8       1.7954  -2.3605 -15.2466   C.ar      1 RES1   0.0000
     9 C9       1.3474  -4.1658 -13.7935   C.ar      1 RES1   0.0000
    10 H10      1.5623  -4.7017 -12.8760   H         1 RES1   0.0000
    11 C11     -0.4051  -5.8830 -14.3126   C.2       1 RES1   0.0000
    12 F12      2.5018  -1.2342 -15.5370   F         1 RES1   0.0000
    13 N13     -1.3320  -7.9018 -14.2208   N.am      1 RES1   0.0000
    14 C14     -1.7300  -9.3327 -14.4458   C.3       1 RES1   0.0000
    15 H15     -1.2482  -9.6778 -15.3593   H         1 RES1   0.0000
    16 C16     -2.4135  -7.7609 -11.9431   C.3       1 RES1   0.0000
    17 H17     -3.0165  -7.0167 -11.4270   H         1 RES1   0.0000
    18 H18     -3.0693  -8.5717 -12.2537   H         1 RES1   0.0000
    19 H19     -1.6900  -8.1614 -11.2361   H         1 RES1   0.0000
    20 C20     -1.1594  -5.9688 -13.1688   C.2       1 RES1   0.0000
    21 C21     -1.4160  -4.9157 -12.1531   C.ar      1 RES1   0.0000
    22 O22     -0.0330  -7.5421 -16.0308   O.2       1 RES1   0.0000
    23 C23     -0.5248  -7.1342 -14.9867   C.2       1 RES1   0.0000
    24 N24     -1.7356  -7.1696 -13.0972   N.pl3     1 RES1   0.0000
    25 C25     -1.6191 -11.6678 -13.5174   C.3       1 RES1   0.0000
    26 H26     -1.3015 -12.2597 -12.6603   H         1 RES1   0.0000
    27 H27     -1.1235 -12.0341 -14.4152   H         1 RES1   0.0000
    28 C28     -3.6114 -10.9560 -14.8122   C.3       1 RES1   0.0000
    29 H29     -3.1768 -11.3136 -15.7445   H         1 RES1   0.0000
    30 H30     -4.6957 -11.0451 -14.8594   H         1 RES1   0.0000
    31 C31     -3.2385  -9.4943 -14.6158   C.3       1 RES1   0.0000
    32 H32     -3.5620  -8.9243 -15.4856   H         1 RES1   0.0000
    33 H33     -3.7398  -9.1153 -13.7265   H         1 RES1   0.0000
    34 C34     -1.2462 -10.2127 -13.2926   C.3       1 RES1   0.0000
    35 H35     -1.7038  -9.8679 -12.3666   H         1 RES1   0.0000
    36 H36     -0.1630 -10.1318 -13.2144   H         1 RES1   0.0000
    37 N37     -3.1003 -11.7876 -13.6830   N.4       1 RES1   1.0000
    38 H38     -3.5505 -11.4854 -12.8249   H         1 RES1   0.0000
    39 H39     -3.3315 -12.7595 -13.8623   H         1 RES1   0.0000
    40 N40     -1.5946  -3.6669 -12.6117   N.ar      1 RES1   0.0000
    41 C41     -1.6913  -4.1267  -9.9489   C.ar      1 RES1   0.0000
    42 H42     -1.7346  -4.3195  -8.8820   H         1 RES1   0.0000
    43 N43     -1.9592  -1.4491 -12.1568   N.pl3     1 RES1   0.0000
    44 H44     -1.8512  -1.2873 -13.1581   H         1 RES1   0.0000
    45 C45     -1.4588  -5.1926 -10.7945   C.ar      1 RES1   0.0000
    46 H46     -1.3141  -6.1984 -10.4141   H         1 RES1   0.0000
    47 C47     -1.8016  -2.7021 -11.7010   C.ar      1 RES1   0.0000
    48 N48     -1.8650  -2.8678 -10.3718   N.ar      1 RES1   0.0000
    49 C49     -2.2137  -0.2912 -11.3001   C.3       1 RES1   0.0000
    50 H50     -1.3674  -0.1738 -10.6056   H         1 RES1   0.0000
    51 C51     -3.4861  -0.4406 -10.4894   C.ar      1 RES1   0.0000
    52 C52     -2.2813   0.9404 -12.1954   C.3       1 RES1   0.0000
    53 H53     -2.4375   1.8400 -11.6037   H         1 RES1   0.0000
    54 H54     -1.3583   1.0614 -12.7585   H         1 RES1   0.0000
    55 H55     -3.1019   0.8552 -12.9046   H         1 RES1   0.0000
    56 C56     -5.8323  -0.7163  -9.0131   C.ar      1 RES1   0.0000
    57 H57     -6.7459  -0.8244  -8.4379   H         1 RES1   0.0000
    58 C58     -4.7097  -0.5997 -11.1238   C.ar      1 RES1   0.0000
    59 H59     -4.7532  -0.6164 -12.2078   H         1 RES1   0.0000
    60 C60     -3.4580  -0.4195  -9.1018   C.ar      1 RES1   0.0000
    61 H61     -2.5130  -0.2944  -8.5835   H         1 RES1   0.0000
    62 C62     -4.6250  -0.5570  -8.3692   C.ar      1 RES1   0.0000
    63 H63     -4.5877  -0.5392  -7.2851   H         1 RES1   0.0000
    64 C64     -5.8754  -0.7378 -10.3897   C.ar      1 RES1   0.0000
    65 H65     -6.8246  -0.8632 -10.9001   H         1 RES1   0.0000
@<TRIPOS>BOND
     1     1     5   ar
     2     1     6   ar
     3     1     2    1
     4     3     8   ar
     5     3     9   ar
     6     3     4    1
     7     5     9   ar
     8     5    11    1
     9     6     8   ar
    10     6     7    1
    11     8    12    1
    12     9    10    1
    13    11    20    2
    14    11    23    1
    15    13    14    1
    16    13    23   am
    17    13    24    1
    18    14    31    1
    19    14    34    1
    20    14    15    1
    21    16    24    1
    22    16    17    1
    23    16    18    1
    24    16    19    1
    25    20    21    1
    26    20    24    1
    27    21    40   ar
    28    21    45   ar
    29    22    23    2
    30    25    34    1
    31    25    37    1
    32    25    26    1
    33    25    27    1
    34    28    31    1
    35    28    37    1
    36    28    29    1
    37    28    30    1
    38    31    32    1
    39    31    33    1
    40    34    35    1
    41    34    36    1
    42    37    38    1
    43    37    39    1
    44    40    47   ar
    45    41    45   ar
    46    41    48   ar
    47    41    42    1
    48    43    47    1
    49    43    49    1
    50    43    44    1
    51    45    46    1
    52    47    48   ar
    53    49    51    1
    54    49    52    1
    55    49    50    1
    56    51    58   ar
    57    51    60   ar
    58    52    53    1
    59    52    54    1
    60    52    55    1
    61    56    62   ar
    62    56    64   ar
    63    56    57    1
    64    58    64   ar
    65    58    59    1
    66    60    62   ar
    67    60    61    1
    68    62    63    1
    69    64    65    1
@<TRIPOS>SUBSTRUCTURE
     1 RES1        1 GROUP             0 ****  ****    0  
@<TRIPOS>MOLECULE
LIGAND_00119
    65    69     1     0     0
SMALL
USER_CHARGES
****
Generated from the CSD

@<TRIPOS>ATOM
     1 C1      -3.1082  -3.8467 -15.3485   C.ar      1 RES1   0.0000
     2 H2      -3.9196  -4.2680 -14.7648   H         1 RES1   0.0000
     3 C3      -1.0486  -2.7326 -16.8144   C.ar      1 RES1   0.0000
     4 H4      -0.2425  -2.2849 -17.3862   H         1 RES1   0.0000
     5 C5      -1.8807  -4.5012 -15.3863   C.ar      1 RES1   0.0000
     6 C6      -3.3149  -2.6641 -16.0366   C.ar      1 RES1   0.0000
     7 H7      -4.2784  -2.1662 -16.0089   H         1 RES1   0.0000
     8 C8      -2.2759  -2.1368 -16.7505   C.ar      1 RES1   0.0000
     9 C9      -0.8593  -3.9211 -16.1333   C.ar      1 RES1   0.0000
    10 H10      0.1074  -4.4085 -16.1896   H         1 RES1   0.0000
    11 C11     -1.6407  -5.7808 -14.6431   C.2       1 RES1   0.0000
    12 F12     -2.4704  -0.9712 -17.4252   F         1 RES1   0.0000
    13 N13     -1.2167  -7.9349 -14.1568   N.am      1 RES1   0.0000
    14 C14     -1.4591  -9.4108 -14.2957   C.3       1 RES1   0.0000
    15 H15     -1.1800  -9.7054 -15.3063   H         1 RES1   0.0000
    16 C16     -0.8326  -7.6722 -11.7853   C.3       1 RES1   0.0000
    17 H17     -1.3883  -8.3966 -11.1935   H         1 RES1   0.0000
    18 H18      0.1154  -8.1238 -12.0703   H         1 RES1   0.0000
    19 H19     -0.6221  -6.8097 -11.1563   H         1 RES1   0.0000
    20 C20     -1.7513  -5.9390 -13.3057   C.2       1 RES1   0.0000
    21 C21     -2.0254  -4.9138 -12.2663   C.ar      1 RES1   0.0000
    22 O22     -1.2078  -7.4000 -16.3915   O.2       1 RES1   0.0000
    23 C23     -1.3178  -7.0557 -15.2220   C.2       1 RES1   0.0000
    24 N24     -1.5957  -7.2748 -12.9689   N.3       1 RES1   0.0000
    25 C25     -0.8004 -11.6901 -13.4604   C.3       1 RES1   0.0000
    26 H26     -0.1997 -12.2160 -12.7198   H         1 RES1   0.0000
    27 H27     -0.5012 -12.0036 -14.4594   H         1 RES1   0.0000
    28 C28     -3.1322 -11.2819 -14.2010   C.3       1 RES1   0.0000
    29 H29     -2.9014 -11.5956 -15.2180   H         1 RES1   0.0000
    30 H30     -4.1708 -11.5185 -13.9750   H         1 RES1   0.0000
    31 C31     -2.9253  -9.7794 -14.0829   C.3       1 RES1   0.0000
    32 H32     -3.5317  -9.2763 -14.8346   H         1 RES1   0.0000
    33 H33     -3.2338  -9.4544 -13.0904   H         1 RES1   0.0000
    34 C34     -0.5854 -10.1937 -13.3149   C.3       1 RES1   0.0000
    35 H35     -0.8381  -9.8958 -12.2984   H         1 RES1   0.0000
    36 H36      0.4611  -9.9646 -13.5107   H         1 RES1   0.0000
    37 N37     -2.2450 -12.0135 -13.2495   N.4       1 RES1   1.0000
    38 H38     -2.5018 -11.7582 -12.3013   H         1 RES1   0.0000
    39 H39     -2.3788 -13.0112 -13.3793   H         1 RES1   0.0000
    40 N40     -1.5622  -3.6765 -12.5033   N.ar      1 RES1   0.0000
    41 C41     -2.8928  -4.1749 -10.2027   C.ar      1 RES1   0.0000
    42 H42     -3.4327  -4.3807  -9.2843   H         1 RES1   0.0000
    43 N43     -1.3003  -1.5147 -11.7849   N.pl3     1 RES1   0.0000
    44 H44     -1.5238  -0.7830 -11.1104   H         1 RES1   0.0000
    45 C45     -2.7132  -5.2096 -11.0985   C.ar      1 RES1   0.0000
    46 H46     -3.0900  -6.2069 -10.8971   H         1 RES1   0.0000
    47 C47     -1.7815  -2.7475 -11.5589   C.ar      1 RES1   0.0000
    48 N48     -2.4367  -2.9317 -10.4034   N.ar      1 RES1   0.0000
    49 C49     -0.5285  -1.1405 -12.9698   C.3       1 RES1   0.0000
    50 H50     -1.1507  -1.3072 -13.8627   H         1 RES1   0.0000
    51 C51      0.7445  -1.9517 -13.1102   C.ar      1 RES1   0.0000
    52 C52     -0.2158   0.3477 -12.8669   C.3       1 RES1   0.0000
    53 H53      0.3321   0.6887 -13.7428   H         1 RES1   0.0000
    54 H54     -1.1307   0.9317 -12.7912   H         1 RES1   0.0000
    55 H55      0.3906   0.5530 -11.9872   H         1 RES1   0.0000
    56 C56      3.0843  -3.4439 -13.3529   C.ar      1 RES1   0.0000
    57 H57      3.9952  -4.0257 -13.4476   H         1 RES1   0.0000
    58 C58      1.3938  -2.4421 -11.9864   C.ar      1 RES1   0.0000
    59 H59      0.9855  -2.2415 -11.0014   H         1 RES1   0.0000
    60 C60      1.2890  -2.2197 -14.3587   C.ar      1 RES1   0.0000
    61 H61      0.8000  -1.8452 -15.2518   H         1 RES1   0.0000
    62 C62      2.4520  -2.9619 -14.4778   C.ar      1 RES1   0.0000
    63 H63      2.8657  -3.1640 -15.4601   H         1 RES1   0.0000
    64 C64      2.5561  -3.1846 -12.1074   C.ar      1 RES1   0.0000
    65 H65      3.0514  -3.5628 -11.2194   H         1 RES1   0.0000
@<TRIPOS>BOND
     1     1     5   ar
     2     1     6   ar
     3     1     2    1
     4     3     8   ar
     5     3     9   ar
     6     3     4    1
     7     5     9   ar
     8     5    11    1
     9     6     8   ar
    10     6     7    1
    11     8    12    1
    12     9    10    1
    13    11    20    2
    14    11    23    1
    15    13    14    1
    16    13    23   am
    17    13    24    1
    18    14    31    1
    19    14    34    1
    20    14    15    1
    21    16    24    1
    22    16    17    1
    23    16    18    1
    24    16    19    1
    25    20    21    1
    26    20    24    1
    27    21    40   ar
    28    21    45   ar
    29    22    23    2
    30    25    34    1
    31    25    37    1
    32    25    26    1
    33    25    27    1
    34    28    31    1
    35    28    37    1
    36    28    29    1
    37    28    30    1
    38    31    32    1
    39    31    33    1
    40    34    35    1
    41    34    36    1
    42    37    38    1
    43    37    39    1
    44    40    47   ar
    45    41    45   ar
    46    41    48   ar
    47    41    42    1
    48    43    47    1
    49    43    49    1
    50    43    44    1
    51    45    46    1
    52    47    48   ar
    53    49    51    1
    54    49    52    1
    55    49    50    1
    56    51    58   ar
    57    51    60   ar
    58    52    53    1
    59    52    54    1
    60    52    55    1
    61    56    62   ar
    62    56    64   ar
    63    56    57    1
    64    58    64   ar
    65    58    59    1
    66    60    62   ar
    67    60    61    1
    68    62    63    1
    69    64    65    1
@<TRIPOS>SUBSTRUCTURE
     1 RES1        1 GROUP             0 ****  ****    0  
@<TRIPOS>MOLECULE
LIGAND_00120
    65    69     1     0     0
SMALL
USER_CHARGES
****
Generated from the CSD

@<TRIPOS>ATOM
     1 C1      -2.2540  -3.9065 -12.4699   C.ar      1 RES1   0.0000
     2 H2      -2.1705  -4.6092 -11.6479   H         1 RES1   0.0000
     3 C3      -2.4413  -2.0861 -14.5393   C.ar      1 RES1   0.0000
     4 H4      -2.5102  -1.3632 -15.3456   H         1 RES1   0.0000
     5 C5      -1.9397  -4.3224 -13.7602   C.ar      1 RES1   0.0000
     6 C6      -2.6663  -2.6112 -12.2114   C.ar      1 RES1   0.0000
     7 H7      -2.9184  -2.2990 -11.2035   H         1 RES1   0.0000
     8 C8      -2.7464  -1.7335 -13.2556   C.ar      1 RES1   0.0000
     9 C9      -2.0437  -3.3873 -14.7862   C.ar      1 RES1   0.0000
    10 H10     -1.8130  -3.6801 -15.8041   H         1 RES1   0.0000
    11 C11     -1.4881  -5.7210 -14.0551   C.2       1 RES1   0.0000
    12 F12     -3.1459  -0.4564 -13.0080   F         1 RES1   0.0000
    13 N13     -1.2406  -7.9410 -14.1570   N.am      1 RES1   0.0000
    14 C14     -1.5106  -9.4109 -14.3092   C.3       1 RES1   0.0000
    15 H15     -1.1003  -9.7325 -15.2653   H         1 RES1   0.0000
    16 C16      1.1525  -8.0254 -14.6787   C.3       1 RES1   0.0000
    17 H17      1.9652  -7.3592 -14.9605   H         1 RES1   0.0000
    18 H18      1.3288  -8.3620 -13.6591   H         1 RES1   0.0000
    19 H19      1.1831  -8.8941 -15.3329   H         1 RES1   0.0000
    20 C20     -0.2822  -5.9961 -14.6126   C.2       1 RES1   0.0000
    21 C21      0.7971  -5.0460 -14.9858   C.ar      1 RES1   0.0000
    22 O22     -3.2591  -7.2142 -13.3089   O.2       1 RES1   0.0000
    23 C23     -2.1513  -6.9682 -13.7677   C.2       1 RES1   0.0000
    24 N24     -0.1378  -7.3433 -14.7851   N.3       1 RES1   0.0000
    25 C25     -1.0551 -11.6942 -13.3574   C.3       1 RES1   0.0000
    26 H26     -0.5842 -12.2252 -12.5314   H         1 RES1   0.0000
    27 H27     -0.6273 -12.0351 -14.2990   H         1 RES1   0.0000
    28 C28     -3.2423 -11.2263 -14.4295   C.3       1 RES1   0.0000
    29 H29     -2.8796 -11.5656 -15.3986   H         1 RES1   0.0000
    30 H30     -4.3099 -11.4259 -14.3512   H         1 RES1   0.0000
    31 C31     -3.0036  -9.7292 -14.3034   C.3       1 RES1   0.0000
    32 H32     -3.4794  -9.2210 -15.1408   H         1 RES1   0.0000
    33 H33     -3.4393  -9.3765 -13.3697   H         1 RES1   0.0000
    34 C34     -0.8125 -10.2029 -13.2029   C.3       1 RES1   0.0000
    35 H35     -1.1973  -9.8787 -12.2372   H         1 RES1   0.0000
    36 H36      0.2584 -10.0105 -13.2501   H         1 RES1   0.0000
    37 N37     -2.5250 -11.9680 -13.3510   N.4       1 RES1   1.0000
    38 H38     -2.9056 -11.6875 -12.4528   H         1 RES1   0.0000
    39 H39     -2.6726 -12.9632 -13.4851   H         1 RES1   0.0000
    40 N40      1.1551  -5.0187 -16.2791   N.ar      1 RES1   0.0000
    41 C41      2.4200  -3.4011 -14.5199   C.ar      1 RES1   0.0000
    42 H42      2.9191  -2.7504 -13.8094   H         1 RES1   0.0000
    43 N43      2.5212  -4.1693 -17.9134   N.pl3     1 RES1   0.0000
    44 H44      2.0667  -4.8242 -18.5497   H         1 RES1   0.0000
    45 C45      1.4212  -4.2314 -14.0525   C.ar      1 RES1   0.0000
    46 H46      1.1400  -4.2475 -13.0047   H         1 RES1   0.0000
    47 C47      2.1475  -4.1824 -16.6239   C.ar      1 RES1   0.0000
    48 N48      2.8078  -3.3547 -15.8010   N.ar      1 RES1   0.0000
    49 C49      3.5834  -3.3190 -18.4503   C.3       1 RES1   0.0000
    50 H50      4.3527  -3.1836 -17.6743   H         1 RES1   0.0000
    51 C51      3.0746  -1.9536 -18.8689   C.ar      1 RES1   0.0000
    52 C52      4.2091  -4.0513 -19.6316   C.3       1 RES1   0.0000
    53 H53      5.0311  -3.4753 -20.0516   H         1 RES1   0.0000
    54 H54      4.5965  -5.0208 -19.3255   H         1 RES1   0.0000
    55 H55      3.4734  -4.2131 -20.4167   H         1 RES1   0.0000
    56 C56      2.1300   0.5485 -19.6483   C.ar      1 RES1   0.0000
    57 H57      1.7616   1.5231 -19.9511   H         1 RES1   0.0000
    58 C58      2.0955  -1.8366 -19.8451   C.ar      1 RES1   0.0000
    59 H59      1.6935  -2.7304 -20.3106   H         1 RES1   0.0000
    60 C60      3.5746  -0.7948 -18.2911   C.ar      1 RES1   0.0000
    61 H61      4.3419  -0.8611 -17.5269   H         1 RES1   0.0000
    62 C62      3.1038   0.4483 -18.6792   C.ar      1 RES1   0.0000
    63 H63      3.5035   1.3454 -18.2183   H         1 RES1   0.0000
    64 C64      1.6255  -0.5930 -20.2313   C.ar      1 RES1   0.0000
    65 H65      0.8583  -0.5177 -20.9948   H         1 RES1   0.0000
@<TRIPOS>BOND
     1     1     5   ar
     2     1     6   ar
     3     1     2    1
     4     3     8   ar
     5     3     9   ar
     6     3     4    1
     7     5     9   ar
     8     5    11    1
     9     6     8   ar
    10     6     7    1
    11     8    12    1
    12     9    10    1
    13    11    20    2
    14    11    23    1
    15    13    14    1
    16    13    23   am
    17    13    24    1
    18    14    31    1
    19    14    34    1
    20    14    15    1
    21    16    24    1
    22    16    17    1
    23    16    18    1
    24    16    19    1
    25    20    21    1
    26    20    24    1
    27    21    40   ar
    28    21    45   ar
    29    22    23    2
    30    25    34    1
    31    25    37    1
    32    25    26    1
    33    25    27    1
    34    28    31    1
    35    28    37    1
    36    28    29    1
    37    28    30    1
    38    31    32    1
    39    31    33    1
    40    34    35    1
    41    34    36    1
    42    37    38    1
    43    37    39    1
    44    40    47   ar
    45    41    45   ar
    46    41    48   ar
    47    41    42    1
    48    43    47    1
    49    43    49    1
    50    43    44    1
    51    45    46    1
    52    47    48   ar
    53    49    51    1
    54    49    52    1
    55    49    50    1
    56    51    58   ar
    57    51    60   ar
    58    52    53    1
    59    52    54    1
    60    52    55    1
    61    56    62   ar
    62    56    64   ar
    63    56    57    1
    64    58    64   ar
    65    58    59    1
    66    60    62   ar
    67    60    61    1
    68    62    63    1
    69    64    65    1
@<TRIPOS>SUBSTRUCTURE
     1 RES1        1 GROUP             0 ****  ****    0  
@<TRIPOS>MOLECULE
LIGAND_00121
    65    69     1     0     0
SMALL
USER_CHARGES
****
Generated from the CSD

@<TRIPOS>ATOM
     1 C1      -1.2035  -3.5069 -12.8521   C.ar      1 RES1   0.0000
     2 H2      -0.2958  -3.8823 -12.3921   H         1 RES1   0.0000
     3 C3      -3.4923  -2.5126 -14.0372   C.ar      1 RES1   0.0000
     4 H4      -4.3860  -2.1123 -14.5044   H         1 RES1   0.0000
     5 C5      -1.9214  -4.3265 -13.7179   C.ar      1 RES1   0.0000
     6 C6      -1.6206  -2.2183 -12.5690   C.ar      1 RES1   0.0000
     7 H7      -1.0595  -1.5902 -11.8852   H         1 RES1   0.0000
     8 C8      -2.7552  -1.7544 -13.1729   C.ar      1 RES1   0.0000
     9 C9      -3.0722  -3.8034 -14.3010   C.ar      1 RES1   0.0000
    10 H10     -3.6586  -4.4175 -14.9749   H         1 RES1   0.0000
    11 C11     -1.4801  -5.7231 -14.0371   C.2       1 RES1   0.0000
    12 F12     -3.1683  -0.4861 -12.9034   F         1 RES1   0.0000
    13 N13     -1.2444  -7.9426 -14.1720   N.am      1 RES1   0.0000
    14 C14     -1.5231  -9.4090 -14.3408   C.3       1 RES1   0.0000
    15 H15     -1.1262  -9.7194 -15.3061   H         1 RES1   0.0000
    16 C16      1.1419  -8.0309 -14.7233   C.3       1 RES1   0.0000
    17 H17      1.9043  -7.4910 -15.2811   H         1 RES1   0.0000
    18 H18      1.4722  -8.1116 -13.6897   H         1 RES1   0.0000
    19 H19      1.0672  -9.0351 -15.1351   H         1 RES1   0.0000
    20 C20     -0.2822  -5.9961 -14.6126   C.2       1 RES1   0.0000
    21 C21      0.7971  -5.0460 -14.9858   C.ar      1 RES1   0.0000
    22 O22     -3.2492  -7.2181 -13.2900   O.2       1 RES1   0.0000
    23 C23     -2.1457  -6.9710 -13.7586   C.2       1 RES1   0.0000
    24 N24     -0.1463  -7.3415 -14.8051   N.3       1 RES1   0.0000
    25 C25     -1.0668 -11.7071 -13.4258   C.3       1 RES1   0.0000
    26 H26     -0.5883 -12.2515 -12.6130   H         1 RES1   0.0000
    27 H27     -0.6522 -12.0371 -14.3772   H         1 RES1   0.0000
    28 C28     -3.2647 -11.2147 -14.4643   C.3       1 RES1   0.0000
    29 H29     -2.9156 -11.5424 -15.4424   H         1 RES1   0.0000
    30 H30     -4.3323 -11.4104 -14.3756   H         1 RES1   0.0000
    31 C31     -3.0175  -9.7205 -14.3208   C.3       1 RES1   0.0000
    32 H32     -3.5011  -9.1987 -15.1453   H         1 RES1   0.0000
    33 H33     -3.4401  -9.3786 -13.3772   H         1 RES1   0.0000
    34 C34     -0.8153 -10.2192 -13.2540   C.3       1 RES1   0.0000
    35 H35     -1.1867  -9.9064 -12.2793   H         1 RES1   0.0000
    36 H36      0.2558 -10.0311 -13.3118   H         1 RES1   0.0000
    37 N37     -2.5378 -11.9743 -13.4049   N.4       1 RES1   1.0000
    38 H38     -2.9061 -11.7044 -12.4984   H         1 RES1   0.0000
    39 H39     -2.6917 -12.9669 -13.5508   H         1 RES1   0.0000
    40 N40      1.9851  -5.2175 -14.3852   N.ar      1 RES1   0.0000
    41 C41      1.6736  -3.1942 -16.1517   C.ar      1 RES1   0.0000
    42 H42      1.5430  -2.3880 -16.8661   H         1 RES1   0.0000
    43 N43      4.1435  -4.5061 -14.0794   N.pl3     1 RES1   0.0000
    44 H44      4.2237  -5.2431 -13.3790   H         1 RES1   0.0000
    45 C45      0.5972  -4.0204 -15.8982   C.ar      1 RES1   0.0000
    46 H46     -0.3598  -3.8727 -16.3876   H         1 RES1   0.0000
    47 C47      2.9609  -4.3488 -14.6953   C.ar      1 RES1   0.0000
    48 N48      2.8693  -3.3315 -15.5642   N.ar      1 RES1   0.0000
    49 C49      5.3054  -3.6464 -14.3042   C.3       1 RES1   0.0000
    50 H50      4.9525  -2.6263 -14.5209   H         1 RES1   0.0000
    51 C51      6.1579  -4.1190 -15.4654   C.ar      1 RES1   0.0000
    52 C52      6.1148  -3.6161 -13.0130   C.3       1 RES1   0.0000
    53 H53      6.9784  -2.9619 -13.1138   H         1 RES1   0.0000
    54 H54      5.5098  -3.2532 -12.1848   H         1 RES1   0.0000
    55 H55      6.4724  -4.6120 -12.7603   H         1 RES1   0.0000
    56 C56      7.7266  -5.0010 -17.5919   C.ar      1 RES1   0.0000
    57 H57      8.3370  -5.3446 -18.4205   H         1 RES1   0.0000
    58 C58      6.7363  -5.3800 -15.4461   C.ar      1 RES1   0.0000
    59 H59      6.5760  -6.0300 -14.5923   H         1 RES1   0.0000
    60 C60      6.3810  -3.3056 -16.5679   C.ar      1 RES1   0.0000
    61 H61      5.9405  -2.3148 -16.6048   H         1 RES1   0.0000
    62 C62      7.1606  -3.7455 -17.6244   C.ar      1 RES1   0.0000
    63 H63      7.3258  -3.0991 -18.4799   H         1 RES1   0.0000
    64 C64      7.5150  -5.8185 -16.5036   C.ar      1 RES1   0.0000
    65 H65      7.9591  -6.8079 -16.4747   H         1 RES1   0.0000
@<TRIPOS>BOND
     1     1     5   ar
     2     1     6   ar
     3     1     2    1
     4     3     8   ar
     5     3     9   ar
     6     3     4    1
     7     5     9   ar
     8     5    11    1
     9     6     8   ar
    10     6     7    1
    11     8    12    1
    12     9    10    1
    13    11    20    2
    14    11    23    1
    15    13    14    1
    16    13    23   am
    17    13    24    1
    18    14    31    1
    19    14    34    1
    20    14    15    1
    21    16    24    1
    22    16    17    1
    23    16    18    1
    24    16    19    1
    25    20    21    1
    26    20    24    1
    27    21    40   ar
    28    21    45   ar
    29    22    23    2
    30    25    34    1
    31    25    37    1
    32    25    26    1
    33    25    27    1
    34    28    31    1
    35    28    37    1
    36    28    29    1
    37    28    30    1
    38    31    32    1
    39    31    33    1
    40    34    35    1
    41    34    36    1
    42    37    38    1
    43    37    39    1
    44    40    47   ar
    45    41    45   ar
    46    41    48   ar
    47    41    42    1
    48    43    47    1
    49    43    49    1
    50    43    44    1
    51    45    46    1
    52    47    48   ar
    53    49    51    1
    54    49    52    1
    55    49    50    1
    56    51    58   ar
    57    51    60   ar
    58    52    53    1
    59    52    54    1
    60    52    55    1
    61    56    62   ar
    62    56    64   ar
    63    56    57    1
    64    58    64   ar
    65    58    59    1
    66    60    62   ar
    67    60    61    1
    68    62    63    1
    69    64    65    1
@<TRIPOS>SUBSTRUCTURE
     1 RES1        1 GROUP             0 ****  ****    0  
@<TRIPOS>MOLECULE
LIGAND_00122
    65    69     1     0     0
SMALL
USER_CHARGES
****
Generated from the CSD

@<TRIPOS>ATOM
     1 C1       0.2571  -3.9669 -12.3514   C.ar      1 RES1   0.0000
     2 H2       1.1796  -4.3864 -12.7380   H         1 RES1   0.0000
     3 C3      -2.0807  -2.8570 -11.3847   C.ar      1 RES1   0.0000
     4 H4      -2.9951  -2.4108 -11.0079   H         1 RES1   0.0000
     5 C5      -0.9501  -4.6055 -12.6192   C.ar      1 RES1   0.0000
     6 C6       0.3055  -2.8024 -11.6057   C.ar      1 RES1   0.0000
     7 H7       1.2523  -2.3170 -11.3940   H         1 RES1   0.0000
     8 C8      -0.8681  -2.2766 -11.1437   C.ar      1 RES1   0.0000
     9 C9      -2.1140  -4.0278 -12.1197   C.ar      1 RES1   0.0000
    10 H10     -3.0706  -4.5032 -12.3041   H         1 RES1   0.0000
    11 C11     -1.0187  -5.8653 -13.4287   C.2       1 RES1   0.0000
    12 F12     -0.8286  -1.1285 -10.4142   F         1 RES1   0.0000
    13 N13     -1.3461  -7.9194 -14.2137   N.am      1 RES1   0.0000
    14 C14     -1.7556  -9.3492 -14.4252   C.3       1 RES1   0.0000
    15 H15     -1.4862  -9.6309 -15.4421   H         1 RES1   0.0000
    16 C16     -0.6688  -7.5593 -16.6198   C.3       1 RES1   0.0000
    17 H17      0.0866  -6.9792 -17.1459   H         1 RES1   0.0000
    18 H18     -0.3983  -8.6108 -16.6908   H         1 RES1   0.0000
    19 H19     -1.6202  -7.4185 -17.1283   H         1 RES1   0.0000
    20 C20     -0.5870  -5.9122 -14.7311   C.2       1 RES1   0.0000
    21 C21      0.0604  -4.8376 -15.5265   C.ar      1 RES1   0.0000
    22 O22     -1.9963  -7.6128 -12.0746   O.2       1 RES1   0.0000
    23 C23     -1.5043  -7.1661 -13.1026   C.2       1 RES1   0.0000
    24 N24     -0.7633  -7.1401 -15.2209   N.pl3     1 RES1   0.0000
    25 C25     -1.3901 -11.7240 -13.6814   C.3       1 RES1   0.0000
    26 H26     -0.8747 -12.3485 -12.9532   H         1 RES1   0.0000
    27 H27     -1.1032 -12.0273 -14.6873   H         1 RES1   0.0000
    28 C28     -3.6377 -11.0123 -14.4518   C.3       1 RES1   0.0000
    29 H29     -3.4184 -11.3070 -15.4770   H         1 RES1   0.0000
    30 H30     -4.7025 -11.1342 -14.2590   H         1 RES1   0.0000
    31 C31     -3.2599  -9.5511 -14.2607   C.3       1 RES1   0.0000
    32 H32     -3.7833  -8.9481 -15.0011   H         1 RES1   0.0000
    33 H33     -3.5544  -9.2349 -13.2611   H         1 RES1   0.0000
    34 C34     -1.0055 -10.2710 -13.4630   C.3       1 RES1   0.0000
    35 H35     -1.2485  -9.9894 -12.4395   H         1 RES1   0.0000
    36 H36      0.0654 -10.1588 -13.6259   H         1 RES1   0.0000
    37 N37     -2.8675 -11.8836 -13.5163   N.4       1 RES1   1.0000
    38 H38     -3.1178 -11.6409 -12.5630   H         1 RES1   0.0000
    39 H39     -3.1135 -12.8520 -13.6945   H         1 RES1   0.0000
    40 N40      1.0505  -5.2120 -16.3517   N.ar      1 RES1   0.0000
    41 C41      0.3664  -2.6002 -16.2028   C.ar      1 RES1   0.0000
    42 H42      0.0825  -1.5547 -16.1423   H         1 RES1   0.0000
    43 N43      2.6654  -4.6157 -17.8667   N.pl3     1 RES1   0.0000
    44 H44      3.0955  -3.9002 -18.4526   H         1 RES1   0.0000
    45 C45     -0.3206  -3.5078 -15.4220   C.ar      1 RES1   0.0000
    46 H46     -1.1186  -3.1952 -14.7566   H         1 RES1   0.0000
    47 C47      1.6606  -4.2456 -17.0567   C.ar      1 RES1   0.0000
    48 N48      1.3642  -2.9380 -17.0297   N.ar      1 RES1   0.0000
    49 C49      3.1398  -5.9921 -18.0078   C.3       1 RES1   0.0000
    50 H50      2.3114  -6.6139 -18.3811   H         1 RES1   0.0000
    51 C51      3.6260  -6.5734 -16.6947   C.ar      1 RES1   0.0000
    52 C52      4.2541  -5.9927 -19.0479   C.3       1 RES1   0.0000
    53 H53      4.6238  -7.0018 -19.2172   H         1 RES1   0.0000
    54 H54      3.8981  -5.5986 -19.9975   H         1 RES1   0.0000
    55 H55      5.0884  -5.3776 -18.7174   H         1 RES1   0.0000
    56 C56      4.5233  -7.6273 -14.2772   C.ar      1 RES1   0.0000
    57 H57      4.8721  -8.0378 -13.3354   H         1 RES1   0.0000
    58 C58      4.1762  -5.7510 -15.7221   C.ar      1 RES1   0.0000
    59 H59      4.2583  -4.6848 -15.9058   H         1 RES1   0.0000
    60 C60      3.5350  -7.9342 -16.4364   C.ar      1 RES1   0.0000
    61 H61      3.1100  -8.5974 -17.1826   H         1 RES1   0.0000
    62 C62      3.9812  -8.4566 -15.2342   C.ar      1 RES1   0.0000
    63 H63      3.9032  -9.5222 -15.0459   H         1 RES1   0.0000
    64 C64      4.6211  -6.2749 -14.5203   C.ar      1 RES1   0.0000
    65 H65      5.0474  -5.6188 -13.7688   H         1 RES1   0.0000
@<TRIPOS>BOND
     1     1     5   ar
     2     1     6   ar
     3     1     2    1
     4     3     8   ar
     5     3     9   ar
     6     3     4    1
     7     5     9   ar
     8     5    11    1
     9     6     8   ar
    10     6     7    1
    11     8    12    1
    12     9    10    1
    13    11    20    2
    14    11    23    1
    15    13    14    1
    16    13    23   am
    17    13    24    1
    18    14    31    1
    19    14    34    1
    20    14    15    1
    21    16    24    1
    22    16    17    1
    23    16    18    1
    24    16    19    1
    25    20    21    1
    26    20    24    1
    27    21    40   ar
    28    21    45   ar
    29    22    23    2
    30    25    34    1
    31    25    37    1
    32    25    26    1
    33    25    27    1
    34    28    31    1
    35    28    37    1
    36    28    29    1
    37    28    30    1
    38    31    32    1
    39    31    33    1
    40    34    35    1
    41    34    36    1
    42    37    38    1
    43    37    39    1
    44    40    47   ar
    45    41    45   ar
    46    41    48   ar
    47    41    42    1
    48    43    47    1
    49    43    49    1
    50    43    44    1
    51    45    46    1
    52    47    48   ar
    53    49    51    1
    54    49    52    1
    55    49    50    1
    56    51    58   ar
    57    51    60   ar
    58    52    53    1
    59    52    54    1
    60    52    55    1
    61    56    62   ar
    62    56    64   ar
    63    56    57    1
    64    58    64   ar
    65    58    59    1
    66    60    62   ar
    67    60    61    1
    68    62    63    1
    69    64    65    1
@<TRIPOS>SUBSTRUCTURE
     1 RES1        1 GROUP             0 ****  ****    0  
@<TRIPOS>MOLECULE
LIGAND_00123
    65    69     1     0     0
SMALL
USER_CHARGES
****
Generated from the CSD

@<TRIPOS>ATOM
     1 C1      -1.0020  -4.1806 -11.6139   C.ar      1 RES1   0.0000
     2 H2      -0.4301  -4.9292 -11.0761   H         1 RES1   0.0000
     3 C3      -2.4248  -2.2432 -12.9753   C.ar      1 RES1   0.0000
     4 H4      -2.9762  -1.4745 -13.5066   H         1 RES1   0.0000
     5 C5      -1.4913  -4.4747 -12.8831   C.ar      1 RES1   0.0000
     6 C6      -1.2249  -2.9490 -11.0240   C.ar      1 RES1   0.0000
     7 H7      -0.8476  -2.7324 -10.0302   H         1 RES1   0.0000
     8 C8      -1.9299  -2.0107 -11.7238   C.ar      1 RES1   0.0000
     9 C9      -2.2068  -3.4828 -13.5480   C.ar      1 RES1   0.0000
    10 H10     -2.6079  -3.6813 -14.5353   H         1 RES1   0.0000
    11 C11     -1.2547  -5.8030 -13.5365   C.2       1 RES1   0.0000
    12 F12     -2.1482  -0.7952 -11.1521   F         1 RES1   0.0000
    13 N13     -1.1781  -7.9481 -14.1156   N.am      1 RES1   0.0000
    14 C14     -1.3638  -9.4349 -14.2222   C.3       1 RES1   0.0000
    15 H15     -0.8817  -9.7708 -15.1391   H         1 RES1   0.0000
    16 C16     -0.1162  -7.7267 -16.3962   C.3       1 RES1   0.0000
    17 H17      0.7221  -7.1635 -16.8011   H         1 RES1   0.0000
    18 H18      0.1855  -8.7686 -16.3110   H         1 RES1   0.0000
    19 H19     -0.9388  -7.6686 -17.1059   H         1 RES1   0.0000
    20 C20     -0.5870  -5.9122 -14.7311   C.2       1 RES1   0.0000
    21 C21      0.0604  -4.8376 -15.5265   C.ar      1 RES1   0.0000
    22 O22     -2.2454  -7.5340 -12.1709   O.2       1 RES1   0.0000
    23 C23     -1.6299  -7.1222 -13.1456   C.2       1 RES1   0.0000
    24 N24     -0.5184  -7.1938 -15.0941   N.pl3     1 RES1   0.0000
    25 C25     -0.8509 -11.6528 -13.1523   C.3       1 RES1   0.0000
    26 H26     -0.4037 -12.1262 -12.2795   H         1 RES1   0.0000
    27 H27     -0.3512 -12.0064 -14.0530   H         1 RES1   0.0000
    28 C28     -2.9913 -11.3426 -14.3666   C.3       1 RES1   0.0000
    29 H29     -2.5550 -11.6991 -15.2985   H         1 RES1   0.0000
    30 H30     -4.0503 -11.5952 -14.3416   H         1 RES1   0.0000
    31 C31     -2.8366  -9.8312 -14.2890   C.3       1 RES1   0.0000
    32 H32     -3.2868  -9.3813 -15.1726   H         1 RES1   0.0000
    33 H33     -3.3443  -9.4666 -13.3972   H         1 RES1   0.0000
    34 C34     -0.6936 -10.1459 -13.0459   C.3       1 RES1   0.0000
    35 H35     -1.1511  -9.8058 -12.1180   H         1 RES1   0.0000
    36 H36      0.3670  -9.8992 -13.0395   H         1 RES1   0.0000
    37 N37     -2.3029 -12.0035 -13.2190   N.4       1 RES1   1.0000
    38 H38     -2.7500 -11.7094 -12.3565   H         1 RES1   0.0000
    39 H39     -2.3917 -13.0095 -13.3202   H         1 RES1   0.0000
    40 N40     -0.0039  -4.9545 -16.8621   N.ar      1 RES1   0.0000
    41 C41      1.2879  -2.8409 -15.7779   C.ar      1 RES1   0.0000
    42 H42      1.7995  -1.9922 -15.3360   H         1 RES1   0.0000
    43 N43      0.5551  -4.1295 -18.9273   N.pl3     1 RES1   0.0000
    44 H44      0.1227  -4.9686 -19.3137   H         1 RES1   0.0000
    45 C45      0.7132  -3.7678 -14.9318   C.ar      1 RES1   0.0000
    46 H46      0.7719  -3.6654 -13.8533   H         1 RES1   0.0000
    47 C47      0.6002  -4.0026 -17.5915   C.ar      1 RES1   0.0000
    48 N48      1.2501  -2.9313 -17.1136   N.ar      1 RES1   0.0000
    49 C49      1.1430  -3.1702 -19.8620   C.3       1 RES1   0.0000
    50 H50      2.2271  -3.1169 -19.6770   H         1 RES1   0.0000
    51 C51      0.5581  -1.7801 -19.7078   C.ar      1 RES1   0.0000
    52 C52      0.9170  -3.7013 -21.2727   C.3       1 RES1   0.0000
    53 H53      1.3650  -3.0395 -22.0110   H         1 RES1   0.0000
    54 H54      1.3587  -4.6886 -21.3906   H         1 RES1   0.0000
    55 H55     -0.1466  -3.7782 -21.4885   H         1 RES1   0.0000
    56 C56     -0.5308   0.7687 -19.4276   C.ar      1 RES1   0.0000
    57 H57     -0.9549   1.7612 -19.3177   H         1 RES1   0.0000
    58 C58     -0.7996  -1.5635 -19.8942   C.ar      1 RES1   0.0000
    59 H59     -1.4446  -2.3968 -20.1526   H         1 RES1   0.0000
    60 C60      1.3622  -0.6968 -19.3808   C.ar      1 RES1   0.0000
    61 H61      2.4271  -0.8414 -19.2319   H         1 RES1   0.0000
    62 C62      0.8194   0.5694 -19.2415   C.ar      1 RES1   0.0000
    63 H63      1.4600   1.4066 -18.9849   H         1 RES1   0.0000
    64 C64     -1.3406  -0.2968 -19.7537   C.ar      1 RES1   0.0000
    65 H65     -2.4045  -0.1436 -19.9009   H         1 RES1   0.0000
@<TRIPOS>BOND
     1     1     5   ar
     2     1     6   ar
     3     1     2    1
     4     3     8   ar
     5     3     9   ar
     6     3     4    1
     7     5     9   ar
     8     5    11    1
     9     6     8   ar
    10     6     7    1
    11     8    12    1
    12     9    10    1
    13    11    20    2
    14    11    23    1
    15    13    14    1
    16    13    23   am
    17    13    24    1
    18    14    31    1
    19    14    34    1
    20    14    15    1
    21    16    24    1
    22    16    17    1
    23    16    18    1
    24    16    19    1
    25    20    21    1
    26    20    24    1
    27    21    40   ar
    28    21    45   ar
    29    22    23    2
    30    25    34    1
    31    25    37    1
    32    25    26    1
    33    25    27    1
    34    28    31    1
    35    28    37    1
    36    28    29    1
    37    28    30    1
    38    31    32    1
    39    31    33    1
    40    34    35    1
    41    34    36    1
    42    37    38    1
    43    37    39    1
    44    40    47   ar
    45    41    45   ar
    46    41    48   ar
    47    41    42    1
    48    43    47    1
    49    43    49    1
    50    43    44    1
    51    45    46    1
    52    47    48   ar
    53    49    51    1
    54    49    52    1
    55    49    50    1
    56    51    58   ar
    57    51    60   ar
    58    52    53    1
    59    52    54    1
    60    52    55    1
    61    56    62   ar
    62    56    64   ar
    63    56    57    1
    64    58    64   ar
    65    58    59    1
    66    60    62   ar
    67    60    61    1
    68    62    63    1
    69    64    65    1
@<TRIPOS>SUBSTRUCTURE
     1 RES1        1 GROUP             0 ****  ****    0  
@<TRIPOS>MOLECULE
LIGAND_00124
    65    69     1     0     0
SMALL
USER_CHARGES
****
Generated from the CSD

@<TRIPOS>ATOM
     1 C1      -1.6652  -4.0444 -11.9141   C.ar      1 RES1   0.0000
     2 H2      -1.1760  -4.7512 -11.2526   H         1 RES1   0.0000
     3 C3      -2.8800  -2.2117 -13.5866   C.ar      1 RES1   0.0000
     4 H4      -3.3506  -1.4837 -14.2391   H         1 RES1   0.0000
     5 C5      -1.9192  -4.4053 -13.2339   C.ar      1 RES1   0.0000
     6 C6      -2.0188  -2.7982 -11.4278   C.ar      1 RES1   0.0000
     7 H7      -1.8254  -2.5294 -10.3948   H         1 RES1   0.0000
     8 C8      -2.6158  -1.9128 -12.2804   C.ar      1 RES1   0.0000
     9 C9      -2.5339  -3.4654 -14.0563   C.ar      1 RES1   0.0000
    10 H10     -2.7524  -3.7166 -15.0880   H         1 RES1   0.0000
    11 C11     -1.5385  -5.7501 -13.7760   C.2       1 RES1   0.0000
    12 F12     -2.9614  -0.6833 -11.8104   F         1 RES1   0.0000
    13 N13     -1.1935  -7.9351 -14.1029   N.am      1 RES1   0.0000
    14 C14     -1.3905  -9.4207 -14.2063   C.3       1 RES1   0.0000
    15 H15     -0.8955  -9.7649 -15.1132   H         1 RES1   0.0000
    16 C16      0.7259  -7.7862 -15.6195   C.3       1 RES1   0.0000
    17 H17      1.1793  -7.1194 -16.3500   H         1 RES1   0.0000
    18 H18      1.4373  -7.9354 -14.8099   H         1 RES1   0.0000
    19 H19      0.5512  -8.7470 -16.0992   H         1 RES1   0.0000
    20 C20     -0.6831  -5.9011 -14.8182   C.2       1 RES1   0.0000
    21 C21      0.0470  -4.8479 -15.5693   C.ar      1 RES1   0.0000
    22 O22     -2.6828  -7.4155 -12.4195   O.2       1 RES1   0.0000
    23 C23     -1.9113  -7.0588 -13.3003   C.2       1 RES1   0.0000
    24 N24     -0.5275  -7.2257 -15.1135   N.3       1 RES1   0.0000
    25 C25     -0.9160 -11.6382 -13.1181   C.3       1 RES1   0.0000
    26 H26     -0.4883 -12.1116 -12.2355   H         1 RES1   0.0000
    27 H27     -0.4039 -12.0002 -14.0083   H         1 RES1   0.0000
    28 C28     -3.0321 -11.3146 -14.3709   C.3       1 RES1   0.0000
    29 H29     -2.5828 -11.6791 -15.2934   H         1 RES1   0.0000
    30 H30     -4.0936 -11.5578 -14.3633   H         1 RES1   0.0000
    31 C31     -2.8654  -9.8044 -14.2970   C.3       1 RES1   0.0000
    32 H32     -3.2961  -9.3544 -15.1903   H         1 RES1   0.0000
    33 H33     -3.3853  -9.4313 -13.4159   H         1 RES1   0.0000
    34 C34     -0.7473 -10.1323 -13.0154   C.3       1 RES1   0.0000
    35 H35     -1.2178  -9.7841 -12.0972   H         1 RES1   0.0000
    36 H36      0.3153  -9.8949 -12.9915   H         1 RES1   0.0000
    37 N37     -2.3697 -11.9764 -13.2086   N.4       1 RES1   1.0000
    38 H38     -2.8291 -11.6746 -12.3553   H         1 RES1   0.0000
    39 H39     -2.4657 -12.9821 -13.3070   H         1 RES1   0.0000
    40 N40      0.2250  -5.0583 -16.8830   N.ar      1 RES1   0.0000
    41 C41      1.2109  -2.8065 -15.7564   C.ar      1 RES1   0.0000
    42 H42      1.5987  -1.9024 -15.2988   H         1 RES1   0.0000
    43 N43      1.1035  -4.3445 -18.8772   N.pl3     1 RES1   0.0000
    44 H44      1.5538  -3.6095 -19.4226   H         1 RES1   0.0000
    45 C45      0.5369  -3.7052 -14.9542   C.ar      1 RES1   0.0000
    46 H46      0.3995  -3.5269 -13.8928   H         1 RES1   0.0000
    47 C47      0.9062  -4.1252 -17.5674   C.ar      1 RES1   0.0000
    48 N48      1.4138  -2.9891 -17.0676   N.ar      1 RES1   0.0000
    49 C49      0.6568  -5.5448 -19.5838   C.3       1 RES1   0.0000
    50 H50     -0.4367  -5.6262 -19.4838   H         1 RES1   0.0000
    51 C51      1.2872  -6.8084 -19.0322   C.ar      1 RES1   0.0000
    52 C52      0.9975  -5.3668 -21.0587   C.3       1 RES1   0.0000
    53 H53      0.6564  -6.2211 -21.6397   H         1 RES1   0.0000
    54 H54      0.5245  -4.4732 -21.4606   H         1 RES1   0.0000
    55 H55      2.0726  -5.2717 -21.1959   H         1 RES1   0.0000
    56 C56      2.4584  -9.1222 -18.0147   C.ar      1 RES1   0.0000
    57 H57      2.9141 -10.0233 -17.6178   H         1 RES1   0.0000
    58 C58      2.5584  -6.7759 -18.4770   C.ar      1 RES1   0.0000
    59 H59      3.1028  -5.8381 -18.4393   H         1 RES1   0.0000
    60 C60      0.6131  -8.0212 -19.0713   C.ar      1 RES1   0.0000
    61 H61     -0.3813  -8.0716 -19.5022   H         1 RES1   0.0000
    62 C62      1.1964  -9.1704 -18.5648   C.ar      1 RES1   0.0000
    63 H63      0.6573 -10.1112 -18.6015   H         1 RES1   0.0000
    64 C64      3.1397  -7.9258 -17.9705   C.ar      1 RES1   0.0000
    65 H65      4.1337  -7.8842 -17.5378   H         1 RES1   0.0000
@<TRIPOS>BOND
     1     1     5   ar
     2     1     6   ar
     3     1     2    1
     4     3     8   ar
     5     3     9   ar
     6     3     4    1
     7     5     9   ar
     8     5    11    1
     9     6     8   ar
    10     6     7    1
    11     8    12    1
    12     9    10    1
    13    11    20    2
    14    11    23    1
    15    13    14    1
    16    13    23   am
    17    13    24    1
    18    14    31    1
    19    14    34    1
    20    14    15    1
    21    16    24    1
    22    16    17    1
    23    16    18    1
    24    16    19    1
    25    20    21    1
    26    20    24    1
    27    21    40   ar
    28    21    45   ar
    29    22    23    2
    30    25    34    1
    31    25    37    1
    32    25    26    1
    33    25    27    1
    34    28    31    1
    35    28    37    1
    36    28    29    1
    37    28    30    1
    38    31    32    1
    39    31    33    1
    40    34    35    1
    41    34    36    1
    42    37    38    1
    43    37    39    1
    44    40    47   ar
    45    41    45   ar
    46    41    48   ar
    47    41    42    1
    48    43    47    1
    49    43    49    1
    50    43    44    1
    51    45    46    1
    52    47    48   ar
    53    49    51    1
    54    49    52    1
    55    49    50    1
    56    51    58   ar
    57    51    60   ar
    58    52    53    1
    59    52    54    1
    60    52    55    1
    61    56    62   ar
    62    56    64   ar
    63    56    57    1
    64    58    64   ar
    65    58    59    1
    66    60    62   ar
    67    60    61    1
    68    62    63    1
    69    64    65    1
@<TRIPOS>SUBSTRUCTURE
     1 RES1        1 GROUP             0 ****  ****    0  
@<TRIPOS>MOLECULE
LIGAND_00125
    65    69     1     0     0
SMALL
USER_CHARGES
****
Generated from the CSD

@<TRIPOS>ATOM
     1 C1      -0.1734  -3.7512 -12.4311   C.ar      1 RES1   0.0000
     2 H2       0.8163  -4.1080 -12.6950   H         1 RES1   0.0000
     3 C3      -2.6840  -2.8012 -11.7784   C.ar      1 RES1   0.0000
     4 H4      -3.6669  -2.4178 -11.5253   H         1 RES1   0.0000
     5 C5      -1.2881  -4.5128 -12.7691   C.ar      1 RES1   0.0000
     6 C6      -0.3010  -2.5429 -11.7691   C.ar      1 RES1   0.0000
     7 H7       0.5745  -1.9608 -11.5013   H         1 RES1   0.0000
     8 C8      -1.5563  -2.0986 -11.4624   C.ar      1 RES1   0.0000
     9 C9      -2.5420  -4.0138 -12.4278   C.ar      1 RES1   0.0000
    10 H10     -3.4308  -4.5851 -12.6702   H         1 RES1   0.0000
    11 C11     -1.1659  -5.8217 -13.4895   C.2       1 RES1   0.0000
    12 F12     -1.6896  -0.9084 -10.8162   F         1 RES1   0.0000
    13 N13     -1.2406  -7.9410 -14.1570   N.am      1 RES1   0.0000
    14 C14     -1.5106  -9.4109 -14.3092   C.3       1 RES1   0.0000
    15 H15     -1.1036  -9.7318 -15.2670   H         1 RES1   0.0000
    16 C16     -0.3252  -7.6743 -16.4955   C.3       1 RES1   0.0000
    17 H17      0.3411  -6.9951 -17.0233   H         1 RES1   0.0000
    18 H18      0.1506  -8.6519 -16.4551   H         1 RES1   0.0000
    19 H19     -1.2427  -7.7670 -17.0729   H         1 RES1   0.0000
    20 C20     -0.5870  -5.9122 -14.7311   C.2       1 RES1   0.0000
    21 C21      0.0604  -4.8376 -15.5265   C.ar      1 RES1   0.0000
    22 O22     -2.1510  -7.5590 -12.1278   O.2       1 RES1   0.0000
    23 C23     -1.5821  -7.1365 -13.1259   C.2       1 RES1   0.0000
    24 N24     -0.6101  -7.1788 -15.1485   N.pl3     1 RES1   0.0000
    25 C25     -1.0508 -11.6947 -13.3605   C.3       1 RES1   0.0000
    26 H26     -0.5767 -12.2260 -12.5366   H         1 RES1   0.0000
    27 H27     -0.6263 -12.0348 -14.3039   H         1 RES1   0.0000
    28 C28     -3.2420 -11.2269 -14.4244   C.3       1 RES1   0.0000
    29 H29     -2.8827 -11.5654 -15.3951   H         1 RES1   0.0000
    30 H30     -4.3093 -11.4269 -14.3425   H         1 RES1   0.0000
    31 C31     -3.0035  -9.7298 -14.2982   C.3       1 RES1   0.0000
    32 H32     -3.4825  -9.2211 -15.1336   H         1 RES1   0.0000
    33 H33     -3.4360  -9.3778 -13.3628   H         1 RES1   0.0000
    34 C34     -0.8082 -10.2033 -13.2060   C.3       1 RES1   0.0000
    35 H35     -1.1897  -9.8799 -12.2386   H         1 RES1   0.0000
    36 H36      0.2624 -10.0106 -13.2569   H         1 RES1   0.0000
    37 N37     -2.5206 -11.9690 -13.3490   N.4       1 RES1   1.0000
    38 H38     -2.8981 -11.6893 -12.4493   H         1 RES1   0.0000
    39 H39     -2.6683 -12.9642 -13.4833   H         1 RES1   0.0000
    40 N40      1.3518  -5.0181 -15.8447   N.ar      1 RES1   0.0000
    41 C41      0.0944  -2.7605 -16.6407   C.ar      1 RES1   0.0000
    42 H42     -0.4181  -1.8597 -16.9618   H         1 RES1   0.0000
    43 N43      3.2523  -4.2108 -16.8421   N.pl3     1 RES1   0.0000
    44 H44      3.6984  -3.5179 -17.4430   H         1 RES1   0.0000
    45 C45     -0.6202  -3.6935 -15.9166   C.ar      1 RES1   0.0000
    46 H46     -1.6635  -3.5377 -15.6629   H         1 RES1   0.0000
    47 C47      1.9548  -4.0414 -16.5414   C.ar      1 RES1   0.0000
    48 N48      1.3851  -2.9047 -16.9677   N.ar      1 RES1   0.0000
    49 C49      4.0496  -5.3599 -16.4138   C.3       1 RES1   0.0000
    50 H50      3.5744  -6.2788 -16.7908   H         1 RES1   0.0000
    51 C51      4.1589  -5.4573 -14.9048   C.ar      1 RES1   0.0000
    52 C52      5.4280  -5.2296 -17.0512   C.3       1 RES1   0.0000
    53 H53      6.0802  -6.0389 -16.7298   H         1 RES1   0.0000
    54 H54      5.3578  -5.2617 -18.1364   H         1 RES1   0.0000
    55 H55      5.8938  -4.2875 -16.7697   H         1 RES1   0.0000
    56 C56      4.3720  -5.6265 -12.1324   C.ar      1 RES1   0.0000
    57 H57      4.4544  -5.6919 -11.0525   H         1 RES1   0.0000
    58 C58      5.1454  -4.7581 -14.2244   C.ar      1 RES1   0.0000
    59 H59      5.8424  -4.1385 -14.7790   H         1 RES1   0.0000
    60 C60      3.2818  -6.2454 -14.1724   C.ar      1 RES1   0.0000
    61 H61      2.5033  -6.8027 -14.6827   H         1 RES1   0.0000
    62 C62      3.3886  -6.3282 -12.7943   C.ar      1 RES1   0.0000
    63 H63      2.6956  -6.9476 -12.2349   H         1 RES1   0.0000
    64 C64      5.2503  -4.8415 -12.8464   C.ar      1 RES1   0.0000
    65 H65      6.0259  -4.2874 -12.3283   H         1 RES1   0.0000
@<TRIPOS>BOND
     1     1     5   ar
     2     1     6   ar
     3     1     2    1
     4     3     8   ar
     5     3     9   ar
     6     3     4    1
     7     5     9   ar
     8     5    11    1
     9     6     8   ar
    10     6     7    1
    11     8    12    1
    12     9    10    1
    13    11    20    2
    14    11    23    1
    15    13    14    1
    16    13    23   am
    17    13    24    1
    18    14    31    1
    19    14    34    1
    20    14    15    1
    21    16    24    1
    22    16    17    1
    23    16    18    1
    24    16    19    1
    25    20    21    1
    26    20    24    1
    27    21    40   ar
    28    21    45   ar
    29    22    23    2
    30    25    34    1
    31    25    37    1
    32    25    26    1
    33    25    27    1
    34    28    31    1
    35    28    37    1
    36    28    29    1
    37    28    30    1
    38    31    32    1
    39    31    33    1
    40    34    35    1
    41    34    36    1
    42    37    38    1
    43    37    39    1
    44    40    47   ar
    45    41    45   ar
    46    41    48   ar
    47    41    42    1
    48    43    47    1
    49    43    49    1
    50    43    44    1
    51    45    46    1
    52    47    48   ar
    53    49    51    1
    54    49    52    1
    55    49    50    1
    56    51    58   ar
    57    51    60   ar
    58    52    53    1
    59    52    54    1
    60    52    55    1
    61    56    62   ar
    62    56    64   ar
    63    56    57    1
    64    58    64   ar
    65    58    59    1
    66    60    62   ar
    67    60    61    1
    68    62    63    1
    69    64    65    1
@<TRIPOS>SUBSTRUCTURE
     1 RES1        1 GROUP             0 ****  ****    0  
@<TRIPOS>MOLECULE
LIGAND_00126
    65    69     1     0     0
SMALL
USER_CHARGES
****
Generated from the CSD

@<TRIPOS>ATOM
     1 C1      -0.1734  -3.7512 -12.4311   C.ar      1 RES1   0.0000
     2 H2       0.8163  -4.1080 -12.6950   H         1 RES1   0.0000
     3 C3      -2.6840  -2.8012 -11.7784   C.ar      1 RES1   0.0000
     4 H4      -3.6669  -2.4178 -11.5253   H         1 RES1   0.0000
     5 C5      -1.2881  -4.5128 -12.7691   C.ar      1 RES1   0.0000
     6 C6      -0.3010  -2.5429 -11.7691   C.ar      1 RES1   0.0000
     7 H7       0.5745  -1.9608 -11.5013   H         1 RES1   0.0000
     8 C8      -1.5563  -2.0986 -11.4624   C.ar      1 RES1   0.0000
     9 C9      -2.5420  -4.0138 -12.4278   C.ar      1 RES1   0.0000
    10 H10     -3.4308  -4.5851 -12.6702   H         1 RES1   0.0000
    11 C11     -1.1659  -5.8217 -13.4895   C.2       1 RES1   0.0000
    12 F12     -1.6896  -0.9084 -10.8162   F         1 RES1   0.0000
    13 N13     -1.2406  -7.9410 -14.1570   N.am      1 RES1   0.0000
    14 C14     -1.5106  -9.4109 -14.3092   C.3       1 RES1   0.0000
    15 H15     -1.1037  -9.7317 -15.2670   H         1 RES1   0.0000
    16 C16     -0.3252  -7.6743 -16.4955   C.3       1 RES1   0.0000
    17 H17      0.3738  -7.0168 -17.0084   H         1 RES1   0.0000
    18 H18      0.1126  -8.6696 -16.4567   H         1 RES1   0.0000
    19 H19     -1.2373  -7.7275 -17.0863   H         1 RES1   0.0000
    20 C20     -0.5870  -5.9122 -14.7311   C.2       1 RES1   0.0000
    21 C21      0.0604  -4.8376 -15.5265   C.ar      1 RES1   0.0000
    22 O22     -2.1510  -7.5590 -12.1278   O.2       1 RES1   0.0000
    23 C23     -1.5821  -7.1365 -13.1259   C.2       1 RES1   0.0000
    24 N24     -0.6101  -7.1788 -15.1485   N.pl3     1 RES1   0.0000
    25 C25     -1.0507 -11.6947 -13.3606   C.3       1 RES1   0.0000
    26 H26     -0.5766 -12.2260 -12.5367   H         1 RES1   0.0000
    27 H27     -0.6262 -12.0348 -14.3041   H         1 RES1   0.0000
    28 C28     -3.2420 -11.2269 -14.4243   C.3       1 RES1   0.0000
    29 H29     -2.8828 -11.5654 -15.3950   H         1 RES1   0.0000
    30 H30     -4.3093 -11.4269 -14.3423   H         1 RES1   0.0000
    31 C31     -3.0035  -9.7298 -14.2981   C.3       1 RES1   0.0000
    32 H32     -3.4825  -9.2211 -15.1334   H         1 RES1   0.0000
    33 H33     -3.4359  -9.3779 -13.3626   H         1 RES1   0.0000
    34 C34     -0.8081 -10.2034 -13.2060   C.3       1 RES1   0.0000
    35 H35     -1.1895  -9.8799 -12.2386   H         1 RES1   0.0000
    36 H36      0.2625 -10.0106 -13.2570   H         1 RES1   0.0000
    37 N37     -2.5205 -11.9690 -13.3490   N.4       1 RES1   1.0000
    38 H38     -2.8979 -11.6893 -12.4492   H         1 RES1   0.0000
    39 H39     -2.6682 -12.9642 -13.4832   H         1 RES1   0.0000
    40 N40      1.3518  -5.0181 -15.8447   N.ar      1 RES1   0.0000
    41 C41      0.0944  -2.7605 -16.6407   C.ar      1 RES1   0.0000
    42 H42     -0.4181  -1.8597 -16.9618   H         1 RES1   0.0000
    43 N43      3.2523  -4.2108 -16.8421   N.pl3     1 RES1   0.0000
    44 H44      3.7313  -5.0229 -16.4529   H         1 RES1   0.0000
    45 C45     -0.6202  -3.6935 -15.9166   C.ar      1 RES1   0.0000
    46 H46     -1.6635  -3.5377 -15.6629   H         1 RES1   0.0000
    47 C47      1.9548  -4.0414 -16.5414   C.ar      1 RES1   0.0000
    48 N48      1.3851  -2.9047 -16.9677   N.ar      1 RES1   0.0000
    49 C49      4.0381  -3.2707 -17.6409   C.3       1 RES1   0.0000
    50 H50      4.0087  -2.2837 -17.1537   H         1 RES1   0.0000
    51 C51      3.5066  -3.1276 -19.0535   C.ar      1 RES1   0.0000
    52 C52      5.4800  -3.7646 -17.6504   C.3       1 RES1   0.0000
    53 H53      6.1051  -3.1198 -18.2645   H         1 RES1   0.0000
    54 H54      5.8921  -3.7767 -16.6435   H         1 RES1   0.0000
    55 H55      5.5377  -4.7741 -18.0521   H         1 RES1   0.0000
    56 C56      2.5382  -2.8771 -21.6535   C.ar      1 RES1   0.0000
    57 H57      2.1604  -2.7798 -22.6659   H         1 RES1   0.0000
    58 C58      3.9002  -4.0132 -20.0463   C.ar      1 RES1   0.0000
    59 H59      4.5938  -4.8125 -19.8071   H         1 RES1   0.0000
    60 C60      2.6208  -2.1119 -19.3861   C.ar      1 RES1   0.0000
    61 H61      2.3000  -1.4062 -18.6270   H         1 RES1   0.0000
    62 C62      2.1400  -1.9888 -20.6788   C.ar      1 RES1   0.0000
    63 H63      1.4476  -1.1904 -20.9241   H         1 RES1   0.0000
    64 C64      3.4178  -3.8891 -21.3382   C.ar      1 RES1   0.0000
    65 H65      3.7335  -4.5905 -22.1033   H         1 RES1   0.0000
@<TRIPOS>BOND
     1     1     5   ar
     2     1     6   ar
     3     1     2    1
     4     3     8   ar
     5     3     9   ar
     6     3     4    1
     7     5     9   ar
     8     5    11    1
     9     6     8   ar
    10     6     7    1
    11     8    12    1
    12     9    10    1
    13    11    20    2
    14    11    23    1
    15    13    14    1
    16    13    23   am
    17    13    24    1
    18    14    31    1
    19    14    34    1
    20    14    15    1
    21    16    24    1
    22    16    17    1
    23    16    18    1
    24    16    19    1
    25    20    21    1
    26    20    24    1
    27    21    40   ar
    28    21    45   ar
    29    22    23    2
    30    25    34    1
    31    25    37    1
    32    25    26    1
    33    25    27    1
    34    28    31    1
    35    28    37    1
    36    28    29    1
    37    28    30    1
    38    31    32    1
    39    31    33    1
    40    34    35    1
    41    34    36    1
    42    37    38    1
    43    37    39    1
    44    40    47   ar
    45    41    45   ar
    46    41    48   ar
    47    41    42    1
    48    43    47    1
    49    43    49    1
    50    43    44    1
    51    45    46    1
    52    47    48   ar
    53    49    51    1
    54    49    52    1
    55    49    50    1
    56    51    58   ar
    57    51    60   ar
    58    52    53    1
    59    52    54    1
    60    52    55    1
    61    56    62   ar
    62    56    64   ar
    63    56    57    1
    64    58    64   ar
    65    58    59    1
    66    60    62   ar
    67    60    61    1
    68    62    63    1
    69    64    65    1
@<TRIPOS>SUBSTRUCTURE
     1 RES1        1 GROUP             0 ****  ****    0  
@<TRIPOS>MOLECULE
LIGAND_00127
    65    69     1     0     0
SMALL
USER_CHARGES
****
Generated from the CSD

@<TRIPOS>ATOM
     1 C1       1.8736  -5.0652 -12.2302   C.ar      1 RES1   0.0000
     2 H2       2.5164  -5.6234 -12.9023   H         1 RES1   0.0000
     3 C3       0.2582  -3.6042 -10.5309   C.ar      1 RES1   0.0000
     4 H4      -0.3700  -3.0212  -9.8655   H         1 RES1   0.0000
     5 C5       0.4952  -5.2454 -12.2944   C.ar      1 RES1   0.0000
     6 C6       2.4430  -4.1829 -11.3291   C.ar      1 RES1   0.0000
     7 H7       3.5194  -4.0563 -11.2799   H         1 RES1   0.0000
     8 C8       1.6173  -3.4728 -10.5038   C.ar      1 RES1   0.0000
     9 C9      -0.2974  -4.4993 -11.4267   C.ar      1 RES1   0.0000
    10 H10     -1.3744  -4.6206 -11.4458   H         1 RES1   0.0000
    11 C11     -0.1363  -6.1946 -13.2677   C.2       1 RES1   0.0000
    12 F12      2.1700  -2.5992  -9.6188   F         1 RES1   0.0000
    13 N13     -1.2519  -7.9333 -14.1561   N.am      1 RES1   0.0000
    14 C14     -1.5370  -9.3995 -14.3156   C.3       1 RES1   0.0000
    15 H15     -1.2572  -9.6899 -15.3272   H         1 RES1   0.0000
    16 C16     -1.4176  -7.1020 -16.4193   C.3       1 RES1   0.0000
    17 H17     -0.7782  -7.0717 -17.2991   H         1 RES1   0.0000
    18 H18     -2.0979  -7.9447 -16.5242   H         1 RES1   0.0000
    19 H19     -2.0090  -6.1891 -16.3977   H         1 RES1   0.0000
    20 C20     -0.0279  -6.1202 -14.6126   C.2       1 RES1   0.0000
    21 C21      0.6269  -5.0726 -15.4374   C.ar      1 RES1   0.0000
    22 O22     -1.1751  -7.8698 -11.8604   O.2       1 RES1   0.0000
    23 C23     -0.9023  -7.3660 -12.9421   C.2       1 RES1   0.0000
    24 N24     -0.6174  -7.2286 -15.2007   N.3       1 RES1   0.0000
    25 C25     -0.9544 -11.7075 -13.5029   C.3       1 RES1   0.0000
    26 H26     -0.3766 -12.2602 -12.7636   H         1 RES1   0.0000
    27 H27     -0.6553 -12.0175 -14.5031   H         1 RES1   0.0000
    28 C28     -3.2658 -11.2207 -14.2594   C.3       1 RES1   0.0000
    29 H29     -3.0350 -11.5287 -15.2781   H         1 RES1   0.0000
    30 H30     -4.3132 -11.4288 -14.0458   H         1 RES1   0.0000
    31 C31     -3.0153  -9.7266 -14.1207   C.3       1 RES1   0.0000
    32 H32     -3.5994  -9.1963 -14.8714   H         1 RES1   0.0000
    33 H33     -3.3233  -9.4046 -13.1270   H         1 RES1   0.0000
    34 C34     -0.6962 -10.2201 -13.3368   C.3       1 RES1   0.0000
    35 H35     -0.9494  -9.9272 -12.3190   H         1 RES1   0.0000
    36 H36      0.3585 -10.0201 -13.5203   H         1 RES1   0.0000
    37 N37     -2.4098 -11.9900 -13.3092   N.4       1 RES1   1.0000
    38 H38     -2.6679 -11.7388 -12.3602   H         1 RES1   0.0000
    39 H39     -2.5721 -12.9816 -13.4527   H         1 RES1   0.0000
    40 N40      1.1649  -5.4706 -16.6010   N.ar      1 RES1   0.0000
    41 C41      1.3443  -2.8710 -15.8790   C.ar      1 RES1   0.0000
    42 H42      1.4074  -1.8282 -15.5856   H         1 RES1   0.0000
    43 N43      2.3394  -4.9378 -18.4970   N.pl3     1 RES1   0.0000
    44 H44      2.3199  -5.9335 -18.7171   H         1 RES1   0.0000
    45 C45      0.6974  -3.7479 -15.0318   C.ar      1 RES1   0.0000
    46 H46      0.2670  -3.4169 -14.0924   H         1 RES1   0.0000
    47 C47      1.7822  -4.5372 -17.3430   C.ar      1 RES1   0.0000
    48 N48      1.8994  -3.2357 -17.0420   N.ar      1 RES1   0.0000
    49 C49      3.0282  -4.0445 -19.4282   C.3       1 RES1   0.0000
    50 H50      3.8859  -3.5884 -18.9099   H         1 RES1   0.0000
    51 C51      2.1280  -2.9366 -19.9389   C.ar      1 RES1   0.0000
    52 C52      3.5526  -4.8931 -20.5806   C.3       1 RES1   0.0000
    53 H53      4.1045  -4.2810 -21.2909   H         1 RES1   0.0000
    54 H54      4.2184  -5.6726 -20.2162   H         1 RES1   0.0000
    55 H55      2.7313  -5.3700 -21.1114   H         1 RES1   0.0000
    56 C56      0.4644  -0.9115 -20.8832   C.ar      1 RES1   0.0000
    57 H57     -0.1838  -0.1227 -21.2503   H         1 RES1   0.0000
    58 C58      0.9687  -3.2385 -20.6389   C.ar      1 RES1   0.0000
    59 H59      0.7075  -4.2757 -20.8209   H         1 RES1   0.0000
    60 C60      2.4414  -1.6018 -19.7220   C.ar      1 RES1   0.0000
    61 H61      3.3436  -1.3412 -19.1787   H         1 RES1   0.0000
    62 C62      1.6133  -0.5963 -20.1916   C.ar      1 RES1   0.0000
    63 H63      1.8705   0.4426 -20.0140   H         1 RES1   0.0000
    64 C64      0.1416  -2.2318 -21.1071   C.ar      1 RES1   0.0000
    65 H65     -0.7626  -2.4836 -21.6513   H         1 RES1   0.0000
@<TRIPOS>BOND
     1     1     5   ar
     2     1     6   ar
     3     1     2    1
     4     3     8   ar
     5     3     9   ar
     6     3     4    1
     7     5     9   ar
     8     5    11    1
     9     6     8   ar
    10     6     7    1
    11     8    12    1
    12     9    10    1
    13    11    20    2
    14    11    23    1
    15    13    14    1
    16    13    23   am
    17    13    24    1
    18    14    31    1
    19    14    34    1
    20    14    15    1
    21    16    24    1
    22    16    17    1
    23    16    18    1
    24    16    19    1
    25    20    21    1
    26    20    24    1
    27    21    40   ar
    28    21    45   ar
    29    22    23    2
    30    25    34    1
    31    25    37    1
    32    25    26    1
    33    25    27    1
    34    28    31    1
    35    28    37    1
    36    28    29    1
    37    28    30    1
    38    31    32    1
    39    31    33    1
    40    34    35    1
    41    34    36    1
    42    37    38    1
    43    37    39    1
    44    40    47   ar
    45    41    45   ar
    46    41    48   ar
    47    41    42    1
    48    43    47    1
    49    43    49    1
    50    43    44    1
    51    45    46    1
    52    47    48   ar
    53    49    51    1
    54    49    52    1
    55    49    50    1
    56    51    58   ar
    57    51    60   ar
    58    52    53    1
    59    52    54    1
    60    52    55    1
    61    56    62   ar
    62    56    64   ar
    63    56    57    1
    64    58    64   ar
    65    58    59    1
    66    60    62   ar
    67    60    61    1
    68    62    63    1
    69    64    65    1
@<TRIPOS>SUBSTRUCTURE
     1 RES1        1 GROUP             0 ****  ****    0  
@<TRIPOS>MOLECULE
LIGAND_00128
    65    69     1     0     0
SMALL
USER_CHARGES
****
Generated from the CSD

@<TRIPOS>ATOM
     1 C1      -0.6994  -4.2982 -11.5265   C.ar      1 RES1   0.0000
     2 H2      -0.1323  -5.0965 -11.0599   H         1 RES1   0.0000
     3 C3      -2.1079  -2.2360 -12.7076   C.ar      1 RES1   0.0000
     4 H4      -2.6530  -1.4188 -13.1683   H         1 RES1   0.0000
     5 C5      -1.2881  -4.5128 -12.7691   C.ar      1 RES1   0.0000
     6 C6      -0.8173  -3.0836 -10.8742   C.ar      1 RES1   0.0000
     7 H7      -0.3629  -2.9290  -9.9013   H         1 RES1   0.0000
     8 C8      -1.5180  -2.0824 -11.4854   C.ar      1 RES1   0.0000
     9 C9      -1.9941  -3.4590 -13.3427   C.ar      1 RES1   0.0000
    10 H10     -2.4708  -3.5947 -14.3068   H         1 RES1   0.0000
    11 C11     -1.1659  -5.8217 -13.4895   C.2       1 RES1   0.0000
    12 F12     -1.6334  -0.8834 -10.8522   F         1 RES1   0.0000
    13 N13     -1.2406  -7.9410 -14.1570   N.am      1 RES1   0.0000
    14 C14     -1.5106  -9.4109 -14.3092   C.3       1 RES1   0.0000
    15 H15     -1.1035  -9.7318 -15.2670   H         1 RES1   0.0000
    16 C16     -0.3252  -7.6743 -16.4955   C.3       1 RES1   0.0000
    17 H17      0.2862  -6.9628 -17.0468   H         1 RES1   0.0000
    18 H18      0.2106  -8.6203 -16.4541   H         1 RES1   0.0000
    19 H19     -1.2478  -7.8308 -17.0505   H         1 RES1   0.0000
    20 C20     -0.5870  -5.9122 -14.7311   C.2       1 RES1   0.0000
    21 C21      0.0604  -4.8376 -15.5265   C.ar      1 RES1   0.0000
    22 O22     -2.1510  -7.5590 -12.1278   O.2       1 RES1   0.0000
    23 C23     -1.5821  -7.1365 -13.1259   C.2       1 RES1   0.0000
    24 N24     -0.6101  -7.1788 -15.1485   N.pl3     1 RES1   0.0000
    25 C25     -1.0509 -11.6946 -13.3605   C.3       1 RES1   0.0000
    26 H26     -0.5769 -12.2260 -12.5365   H         1 RES1   0.0000
    27 H27     -0.6263 -12.0348 -14.3038   H         1 RES1   0.0000
    28 C28     -3.2420 -11.2269 -14.4245   C.3       1 RES1   0.0000
    29 H29     -2.8826 -11.5654 -15.3952   H         1 RES1   0.0000
    30 H30     -4.3093 -11.4269 -14.3427   H         1 RES1   0.0000
    31 C31     -3.0035  -9.7297 -14.2983   C.3       1 RES1   0.0000
    32 H32     -3.4824  -9.2211 -15.1337   H         1 RES1   0.0000
    33 H33     -3.4360  -9.3778 -13.3629   H         1 RES1   0.0000
    34 C34     -0.8083 -10.2033 -13.2059   C.3       1 RES1   0.0000
    35 H35     -1.1899  -9.8799 -12.2386   H         1 RES1   0.0000
    36 H36      0.2623 -10.0106 -13.2567   H         1 RES1   0.0000
    37 N37     -2.5207 -11.9690 -13.3491   N.4       1 RES1   1.0000
    38 H38     -2.8983 -11.6892 -12.4494   H         1 RES1   0.0000
    39 H39     -2.6684 -12.9641 -13.4833   H         1 RES1   0.0000
    40 N40     -0.7315  -4.1442 -16.3595   N.ar      1 RES1   0.0000
    41 C41      1.9032  -3.5489 -16.2337   C.ar      1 RES1   0.0000
    42 H42      2.9602  -3.3115 -16.1736   H         1 RES1   0.0000
    43 N43     -0.9391  -2.5074 -17.9520   N.pl3     1 RES1   0.0000
    44 H44     -0.5235  -1.7379 -18.4769   H         1 RES1   0.0000
    45 C45      1.4167  -4.5622 -15.4325   C.ar      1 RES1   0.0000
    46 H46      2.0651  -5.1182 -14.7635   H         1 RES1   0.0000
    47 C47     -0.1524  -3.1875 -17.1028   C.ar      1 RES1   0.0000
    48 N48      1.1435  -2.8434 -17.0815   N.ar      1 RES1   0.0000
    49 C49     -2.3694  -2.7599 -18.1251   C.3       1 RES1   0.0000
    50 H50     -2.8769  -2.5867 -17.1634   H         1 RES1   0.0000
    51 C51     -2.6556  -4.1798 -18.5728   C.ar      1 RES1   0.0000
    52 C52     -2.8971  -1.7533 -19.1407   C.3       1 RES1   0.0000
    53 H53     -3.9686  -1.8752 -19.2844   H         1 RES1   0.0000
    54 H54     -2.7138  -0.7340 -18.8072   H         1 RES1   0.0000
    55 H55     -2.4091  -1.8874 -20.1038   H         1 RES1   0.0000
    56 C56     -3.1676  -6.7893 -19.4028   C.ar      1 RES1   0.0000
    57 H57     -3.3668  -7.8059 -19.7254   H         1 RES1   0.0000
    58 C58     -1.7348  -4.8729 -19.3454   C.ar      1 RES1   0.0000
    59 H59     -0.8046  -4.3924 -19.6300   H         1 RES1   0.0000
    60 C60     -3.8393  -4.8159 -18.2248   C.ar      1 RES1   0.0000
    61 H61     -4.5752  -4.2934 -17.6228   H         1 RES1   0.0000
    62 C62     -4.0923  -6.1131 -18.6378   C.ar      1 RES1   0.0000
    63 H63     -5.0216  -6.5978 -18.3577   H         1 RES1   0.0000
    64 C64     -1.9891  -6.1702 -19.7568   C.ar      1 RES1   0.0000
    65 H65     -1.2586  -6.6998 -20.3592   H         1 RES1   0.0000
@<TRIPOS>BOND
     1     1     5   ar
     2     1     6   ar
     3     1     2    1
     4     3     8   ar
     5     3     9   ar
     6     3     4    1
     7     5     9   ar
     8     5    11    1
     9     6     8   ar
    10     6     7    1
    11     8    12    1
    12     9    10    1
    13    11    20    2
    14    11    23    1
    15    13    14    1
    16    13    23   am
    17    13    24    1
    18    14    31    1
    19    14    34    1
    20    14    15    1
    21    16    24    1
    22    16    17    1
    23    16    18    1
    24    16    19    1
    25    20    21    1
    26    20    24    1
    27    21    40   ar
    28    21    45   ar
    29    22    23    2
    30    25    34    1
    31    25    37    1
    32    25    26    1
    33    25    27    1
    34    28    31    1
    35    28    37    1
    36    28    29    1
    37    28    30    1
    38    31    32    1
    39    31    33    1
    40    34    35    1
    41    34    36    1
    42    37    38    1
    43    37    39    1
    44    40    47   ar
    45    41    45   ar
    46    41    48   ar
    47    41    42    1
    48    43    47    1
    49    43    49    1
    50    43    44    1
    51    45    46    1
    52    47    48   ar
    53    49    51    1
    54    49    52    1
    55    49    50    1
    56    51    58   ar
    57    51    60   ar
    58    52    53    1
    59    52    54    1
    60    52    55    1
    61    56    62   ar
    62    56    64   ar
    63    56    57    1
    64    58    64   ar
    65    58    59    1
    66    60    62   ar
    67    60    61    1
    68    62    63    1
    69    64    65    1
@<TRIPOS>SUBSTRUCTURE
     1 RES1        1 GROUP             0 ****  ****    0  
@<TRIPOS>MOLECULE
LIGAND_00129
    65    69     1     0     0
SMALL
USER_CHARGES
****
Generated from the CSD

@<TRIPOS>ATOM
     1 C1      -0.1734  -3.7512 -12.4311   C.ar      1 RES1   0.0000
     2 H2       0.8163  -4.1080 -12.6950   H         1 RES1   0.0000
     3 C3      -2.6840  -2.8012 -11.7784   C.ar      1 RES1   0.0000
     4 H4      -3.6669  -2.4178 -11.5253   H         1 RES1   0.0000
     5 C5      -1.2881  -4.5128 -12.7691   C.ar      1 RES1   0.0000
     6 C6      -0.3010  -2.5429 -11.7691   C.ar      1 RES1   0.0000
     7 H7       0.5745  -1.9608 -11.5013   H         1 RES1   0.0000
     8 C8      -1.5563  -2.0986 -11.4624   C.ar      1 RES1   0.0000
     9 C9      -2.5420  -4.0138 -12.4278   C.ar      1 RES1   0.0000
    10 H10     -3.4308  -4.5851 -12.6702   H         1 RES1   0.0000
    11 C11     -1.1659  -5.8217 -13.4895   C.2       1 RES1   0.0000
    12 F12     -1.6896  -0.9084 -10.8162   F         1 RES1   0.0000
    13 N13     -1.2406  -7.9410 -14.1570   N.am      1 RES1   0.0000
    14 C14     -1.5106  -9.4109 -14.3092   C.3       1 RES1   0.0000
    15 H15     -1.1035  -9.7318 -15.2670   H         1 RES1   0.0000
    16 C16     -0.3252  -7.6743 -16.4955   C.3       1 RES1   0.0000
    17 H17      0.2862  -6.9628 -17.0468   H         1 RES1   0.0000
    18 H18      0.2106  -8.6203 -16.4541   H         1 RES1   0.0000
    19 H19     -1.2478  -7.8308 -17.0505   H         1 RES1   0.0000
    20 C20     -0.5870  -5.9122 -14.7311   C.2       1 RES1   0.0000
    21 C21      0.0604  -4.8376 -15.5265   C.ar      1 RES1   0.0000
    22 O22     -2.1510  -7.5590 -12.1278   O.2       1 RES1   0.0000
    23 C23     -1.5821  -7.1365 -13.1259   C.2       1 RES1   0.0000
    24 N24     -0.6101  -7.1788 -15.1485   N.pl3     1 RES1   0.0000
    25 C25     -1.0509 -11.6946 -13.3605   C.3       1 RES1   0.0000
    26 H26     -0.5769 -12.2260 -12.5365   H         1 RES1   0.0000
    27 H27     -0.6263 -12.0348 -14.3038   H         1 RES1   0.0000
    28 C28     -3.2420 -11.2269 -14.4245   C.3       1 RES1   0.0000
    29 H29     -2.8826 -11.5654 -15.3952   H         1 RES1   0.0000
    30 H30     -4.3093 -11.4269 -14.3427   H         1 RES1   0.0000
    31 C31     -3.0035  -9.7297 -14.2983   C.3       1 RES1   0.0000
    32 H32     -3.4824  -9.2211 -15.1337   H         1 RES1   0.0000
    33 H33     -3.4360  -9.3778 -13.3629   H         1 RES1   0.0000
    34 C34     -0.8083 -10.2033 -13.2059   C.3       1 RES1   0.0000
    35 H35     -1.1899  -9.8799 -12.2386   H         1 RES1   0.0000
    36 H36      0.2623 -10.0106 -13.2567   H         1 RES1   0.0000
    37 N37     -2.5207 -11.9690 -13.3491   N.4       1 RES1   1.0000
    38 H38     -2.8983 -11.6892 -12.4494   H         1 RES1   0.0000
    39 H39     -2.6684 -12.9641 -13.4833   H         1 RES1   0.0000
    40 N40     -0.7315  -4.1442 -16.3595   N.ar      1 RES1   0.0000
    41 C41      1.9032  -3.5489 -16.2337   C.ar      1 RES1   0.0000
    42 H42      2.9602  -3.3115 -16.1736   H         1 RES1   0.0000
    43 N43     -0.9391  -2.5074 -17.9520   N.pl3     1 RES1   0.0000
    44 H44     -0.5235  -1.7379 -18.4769   H         1 RES1   0.0000
    45 C45      1.4167  -4.5622 -15.4325   C.ar      1 RES1   0.0000
    46 H46      2.0651  -5.1182 -14.7635   H         1 RES1   0.0000
    47 C47     -0.1524  -3.1875 -17.1028   C.ar      1 RES1   0.0000
    48 N48      1.1435  -2.8434 -17.0815   N.ar      1 RES1   0.0000
    49 C49     -2.3694  -2.7599 -18.1251   C.3       1 RES1   0.0000
    50 H50     -2.8769  -2.5867 -17.1634   H         1 RES1   0.0000
    51 C51     -2.6556  -4.1798 -18.5728   C.ar      1 RES1   0.0000
    52 C52     -2.8971  -1.7533 -19.1407   C.3       1 RES1   0.0000
    53 H53     -3.9686  -1.8752 -19.2844   H         1 RES1   0.0000
    54 H54     -2.7138  -0.7340 -18.8072   H         1 RES1   0.0000
    55 H55     -2.4091  -1.8874 -20.1038   H         1 RES1   0.0000
    56 C56     -3.1676  -6.7893 -19.4028   C.ar      1 RES1   0.0000
    57 H57     -3.3668  -7.8059 -19.7254   H         1 RES1   0.0000
    58 C58     -1.7348  -4.8729 -19.3454   C.ar      1 RES1   0.0000
    59 H59     -0.8046  -4.3924 -19.6300   H         1 RES1   0.0000
    60 C60     -3.8393  -4.8159 -18.2248   C.ar      1 RES1   0.0000
    61 H61     -4.5752  -4.2934 -17.6228   H         1 RES1   0.0000
    62 C62     -4.0923  -6.1131 -18.6378   C.ar      1 RES1   0.0000
    63 H63     -5.0216  -6.5978 -18.3577   H         1 RES1   0.0000
    64 C64     -1.9891  -6.1702 -19.7568   C.ar      1 RES1   0.0000
    65 H65     -1.2586  -6.6998 -20.3592   H         1 RES1   0.0000
@<TRIPOS>BOND
     1     1     5   ar
     2     1     6   ar
     3     1     2    1
     4     3     8   ar
     5     3     9   ar
     6     3     4    1
     7     5     9   ar
     8     5    11    1
     9     6     8   ar
    10     6     7    1
    11     8    12    1
    12     9    10    1
    13    11    20    2
    14    11    23    1
    15    13    14    1
    16    13    23   am
    17    13    24    1
    18    14    31    1
    19    14    34    1
    20    14    15    1
    21    16    24    1
    22    16    17    1
    23    16    18    1
    24    16    19    1
    25    20    21    1
    26    20    24    1
    27    21    40   ar
    28    21    45   ar
    29    22    23    2
    30    25    34    1
    31    25    37    1
    32    25    26    1
    33    25    27    1
    34    28    31    1
    35    28    37    1
    36    28    29    1
    37    28    30    1
    38    31    32    1
    39    31    33    1
    40    34    35    1
    41    34    36    1
    42    37    38    1
    43    37    39    1
    44    40    47   ar
    45    41    45   ar
    46    41    48   ar
    47    41    42    1
    48    43    47    1
    49    43    49    1
    50    43    44    1
    51    45    46    1
    52    47    48   ar
    53    49    51    1
    54    49    52    1
    55    49    50    1
    56    51    58   ar
    57    51    60   ar
    58    52    53    1
    59    52    54    1
    60    52    55    1
    61    56    62   ar
    62    56    64   ar
    63    56    57    1
    64    58    64   ar
    65    58    59    1
    66    60    62   ar
    67    60    61    1
    68    62    63    1
    69    64    65    1
@<TRIPOS>SUBSTRUCTURE
     1 RES1        1 GROUP             0 ****  ****    0  
@<TRIPOS>MOLECULE
LIGAND_00130
    65    69     1     0     0
SMALL
USER_CHARGES
****
Generated from the CSD

@<TRIPOS>ATOM
     1 C1      -0.6994  -4.2982 -11.5265   C.ar      1 RES1   0.0000
     2 H2      -0.1323  -5.0965 -11.0599   H         1 RES1   0.0000
     3 C3      -2.1079  -2.2360 -12.7076   C.ar      1 RES1   0.0000
     4 H4      -2.6530  -1.4188 -13.1683   H         1 RES1   0.0000
     5 C5      -1.2881  -4.5128 -12.7691   C.ar      1 RES1   0.0000
     6 C6      -0.8173  -3.0836 -10.8742   C.ar      1 RES1   0.0000
     7 H7      -0.3629  -2.9290  -9.9013   H         1 RES1   0.0000
     8 C8      -1.5180  -2.0824 -11.4854   C.ar      1 RES1   0.0000
     9 C9      -1.9941  -3.4590 -13.3427   C.ar      1 RES1   0.0000
    10 H10     -2.4708  -3.5947 -14.3068   H         1 RES1   0.0000
    11 C11     -1.1659  -5.8217 -13.4895   C.2       1 RES1   0.0000
    12 F12     -1.6334  -0.8834 -10.8522   F         1 RES1   0.0000
    13 N13     -1.2406  -7.9410 -14.1570   N.am      1 RES1   0.0000
    14 C14     -1.5106  -9.4109 -14.3092   C.3       1 RES1   0.0000
    15 H15     -1.1035  -9.7318 -15.2670   H         1 RES1   0.0000
    16 C16     -0.3252  -7.6743 -16.4955   C.3       1 RES1   0.0000
    17 H17      0.2862  -6.9628 -17.0468   H         1 RES1   0.0000
    18 H18      0.2106  -8.6203 -16.4541   H         1 RES1   0.0000
    19 H19     -1.2478  -7.8308 -17.0505   H         1 RES1   0.0000
    20 C20     -0.5870  -5.9122 -14.7311   C.2       1 RES1   0.0000
    21 C21      0.0604  -4.8376 -15.5265   C.ar      1 RES1   0.0000
    22 O22     -2.1510  -7.5590 -12.1278   O.2       1 RES1   0.0000
    23 C23     -1.5821  -7.1365 -13.1259   C.2       1 RES1   0.0000
    24 N24     -0.6101  -7.1788 -15.1485   N.pl3     1 RES1   0.0000
    25 C25     -1.0509 -11.6946 -13.3605   C.3       1 RES1   0.0000
    26 H26     -0.5769 -12.2260 -12.5365   H         1 RES1   0.0000
    27 H27     -0.6263 -12.0348 -14.3038   H         1 RES1   0.0000
    28 C28     -3.2420 -11.2269 -14.4245   C.3       1 RES1   0.0000
    29 H29     -2.8826 -11.5654 -15.3952   H         1 RES1   0.0000
    30 H30     -4.3093 -11.4269 -14.3427   H         1 RES1   0.0000
    31 C31     -3.0035  -9.7297 -14.2983   C.3       1 RES1   0.0000
    32 H32     -3.4824  -9.2211 -15.1337   H         1 RES1   0.0000
    33 H33     -3.4360  -9.3778 -13.3629   H         1 RES1   0.0000
    34 C34     -0.8083 -10.2033 -13.2059   C.3       1 RES1   0.0000
    35 H35     -1.1899  -9.8799 -12.2386   H         1 RES1   0.0000
    36 H36      0.2623 -10.0106 -13.2567   H         1 RES1   0.0000
    37 N37     -2.5207 -11.9690 -13.3491   N.4       1 RES1   1.0000
    38 H38     -2.8983 -11.6892 -12.4494   H         1 RES1   0.0000
    39 H39     -2.6684 -12.9641 -13.4833   H         1 RES1   0.0000
    40 N40      1.3774  -4.6591 -15.3388   N.ar      1 RES1   0.0000
    41 C41      0.0602  -3.0675 -17.0834   C.ar      1 RES1   0.0000
    42 H42     -0.4737  -2.4365 -17.7862   H         1 RES1   0.0000
    43 N43      3.2815  -3.4798 -15.8307   N.pl3     1 RES1   0.0000
    44 H44      3.7539  -2.7752 -16.3969   H         1 RES1   0.0000
    45 C45     -0.6510  -4.0422 -16.4129   C.ar      1 RES1   0.0000
    46 H46     -1.7159  -4.1777 -16.5702   H         1 RES1   0.0000
    47 C47      1.9685  -3.6735 -16.0332   C.ar      1 RES1   0.0000
    48 N48      1.3719  -2.8567 -16.9137   N.ar      1 RES1   0.0000
    49 C49      4.0901  -4.2594 -14.8936   C.3       1 RES1   0.0000
    50 H50      4.0651  -5.3163 -15.2012   H         1 RES1   0.0000
    51 C51      3.5812  -4.1592 -13.4690   C.ar      1 RES1   0.0000
    52 C52      5.5260  -3.7584 -14.9941   C.3       1 RES1   0.0000
    53 H53      6.1808  -4.3284 -14.3382   H         1 RES1   0.0000
    54 H54      5.8995  -3.8536 -16.0116   H         1 RES1   0.0000
    55 H55      5.5883  -2.7107 -14.7072   H         1 RES1   0.0000
    56 C56      2.6407  -3.9609 -10.8544   C.ar      1 RES1   0.0000
    57 H57      2.2738  -3.8840  -9.8362   H         1 RES1   0.0000
    58 C58      2.9338  -3.0124 -13.0323   C.ar      1 RES1   0.0000
    59 H59      2.7926  -2.1829 -13.7173   H         1 RES1   0.0000
    60 C60      3.7518  -5.2049 -12.5722   C.ar      1 RES1   0.0000
    61 H61      4.2566  -6.1110 -12.8904   H         1 RES1   0.0000
    62 C62      3.2834  -5.1051 -11.2730   C.ar      1 RES1   0.0000
    63 H63      3.4233  -5.9307 -10.5832   H         1 RES1   0.0000
    64 C64      2.4655  -2.9146 -11.7331   C.ar      1 RES1   0.0000
    65 H65      1.9596  -2.0120 -11.4068   H         1 RES1   0.0000
@<TRIPOS>BOND
     1     1     5   ar
     2     1     6   ar
     3     1     2    1
     4     3     8   ar
     5     3     9   ar
     6     3     4    1
     7     5     9   ar
     8     5    11    1
     9     6     8   ar
    10     6     7    1
    11     8    12    1
    12     9    10    1
    13    11    20    2
    14    11    23    1
    15    13    14    1
    16    13    23   am
    17    13    24    1
    18    14    31    1
    19    14    34    1
    20    14    15    1
    21    16    24    1
    22    16    17    1
    23    16    18    1
    24    16    19    1
    25    20    21    1
    26    20    24    1
    27    21    40   ar
    28    21    45   ar
    29    22    23    2
    30    25    34    1
    31    25    37    1
    32    25    26    1
    33    25    27    1
    34    28    31    1
    35    28    37    1
    36    28    29    1
    37    28    30    1
    38    31    32    1
    39    31    33    1
    40    34    35    1
    41    34    36    1
    42    37    38    1
    43    37    39    1
    44    40    47   ar
    45    41    45   ar
    46    41    48   ar
    47    41    42    1
    48    43    47    1
    49    43    49    1
    50    43    44    1
    51    45    46    1
    52    47    48   ar
    53    49    51    1
    54    49    52    1
    55    49    50    1
    56    51    58   ar
    57    51    60   ar
    58    52    53    1
    59    52    54    1
    60    52    55    1
    61    56    62   ar
    62    56    64   ar
    63    56    57    1
    64    58    64   ar
    65    58    59    1
    66    60    62   ar
    67    60    61    1
    68    62    63    1
    69    64    65    1
@<TRIPOS>SUBSTRUCTURE
     1 RES1        1 GROUP             0 ****  ****    0  
@<TRIPOS>MOLECULE
LIGAND_00131
    65    69     1     0     0
SMALL
USER_CHARGES
****
Generated from the CSD

@<TRIPOS>ATOM
     1 C1      -0.6994  -4.2982 -11.5265   C.ar      1 RES1   0.0000
     2 H2      -0.1323  -5.0965 -11.0599   H         1 RES1   0.0000
     3 C3      -2.1079  -2.2360 -12.7076   C.ar      1 RES1   0.0000
     4 H4      -2.6530  -1.4188 -13.1683   H         1 RES1   0.0000
     5 C5      -1.2881  -4.5128 -12.7691   C.ar      1 RES1   0.0000
     6 C6      -0.8173  -3.0836 -10.8742   C.ar      1 RES1   0.0000
     7 H7      -0.3629  -2.9290  -9.9013   H         1 RES1   0.0000
     8 C8      -1.5180  -2.0824 -11.4854   C.ar      1 RES1   0.0000
     9 C9      -1.9941  -3.4590 -13.3427   C.ar      1 RES1   0.0000
    10 H10     -2.4708  -3.5947 -14.3068   H         1 RES1   0.0000
    11 C11     -1.1659  -5.8217 -13.4895   C.2       1 RES1   0.0000
    12 F12     -1.6334  -0.8834 -10.8522   F         1 RES1   0.0000
    13 N13     -1.2406  -7.9410 -14.1570   N.am      1 RES1   0.0000
    14 C14     -1.5106  -9.4109 -14.3092   C.3       1 RES1   0.0000
    15 H15     -1.1036  -9.7318 -15.2670   H         1 RES1   0.0000
    16 C16     -0.3252  -7.6743 -16.4955   C.3       1 RES1   0.0000
    17 H17      0.2645  -6.9514 -17.0556   H         1 RES1   0.0000
    18 H18      0.2331  -8.6072 -16.4541   H         1 RES1   0.0000
    19 H19     -1.2486  -7.8553 -17.0417   H         1 RES1   0.0000
    20 C20     -0.5870  -5.9122 -14.7311   C.2       1 RES1   0.0000
    21 C21      0.0604  -4.8376 -15.5265   C.ar      1 RES1   0.0000
    22 O22     -2.1510  -7.5590 -12.1278   O.2       1 RES1   0.0000
    23 C23     -1.5821  -7.1365 -13.1259   C.2       1 RES1   0.0000
    24 N24     -0.6101  -7.1788 -15.1485   N.pl3     1 RES1   0.0000
    25 C25     -1.0509 -11.6946 -13.3605   C.3       1 RES1   0.0000
    26 H26     -0.5769 -12.2260 -12.5365   H         1 RES1   0.0000
    27 H27     -0.6263 -12.0348 -14.3038   H         1 RES1   0.0000
    28 C28     -3.2420 -11.2269 -14.4245   C.3       1 RES1   0.0000
    29 H29     -2.8827 -11.5654 -15.3952   H         1 RES1   0.0000
    30 H30     -4.3093 -11.4269 -14.3427   H         1 RES1   0.0000
    31 C31     -3.0035  -9.7297 -14.2983   C.3       1 RES1   0.0000
    32 H32     -3.4824  -9.2211 -15.1337   H         1 RES1   0.0000
    33 H33     -3.4360  -9.3778 -13.3629   H         1 RES1   0.0000
    34 C34     -0.8083 -10.2033 -13.2059   C.3       1 RES1   0.0000
    35 H35     -1.1898  -9.8799 -12.2386   H         1 RES1   0.0000
    36 H36      0.2623 -10.0106 -13.2567   H         1 RES1   0.0000
    37 N37     -2.5207 -11.9690 -13.3491   N.4       1 RES1   1.0000
    38 H38     -2.8983 -11.6892 -12.4494   H         1 RES1   0.0000
    39 H39     -2.6683 -12.9641 -13.4833   H         1 RES1   0.0000
    40 N40     -0.7315  -4.1442 -16.3595   N.ar      1 RES1   0.0000
    41 C41      1.9032  -3.5489 -16.2337   C.ar      1 RES1   0.0000
    42 H42      2.9602  -3.3115 -16.1736   H         1 RES1   0.0000
    43 N43     -0.9391  -2.5074 -17.9520   N.pl3     1 RES1   0.0000
    44 H44     -1.9148  -2.7935 -18.0334   H         1 RES1   0.0000
    45 C45      1.4167  -4.5622 -15.4325   C.ar      1 RES1   0.0000
    46 H46      2.0651  -5.1182 -14.7635   H         1 RES1   0.0000
    47 C47     -0.1524  -3.1875 -17.1028   C.ar      1 RES1   0.0000
    48 N48      1.1435  -2.8434 -17.0815   N.ar      1 RES1   0.0000
    49 C49     -0.4698  -1.4230 -18.8142   C.3       1 RES1   0.0000
    50 H50      0.3026  -1.8200 -19.4911   H         1 RES1   0.0000
    51 C51      0.1249  -0.2733 -18.0249   C.ar      1 RES1   0.0000
    52 C52     -1.6535  -0.9525 -19.6512   C.3       1 RES1   0.0000
    53 H53     -1.3521  -0.1640 -20.3376   H         1 RES1   0.0000
    54 H54     -2.0645  -1.7724 -20.2366   H         1 RES1   0.0000
    55 H55     -2.4440  -0.5622 -19.0136   H         1 RES1   0.0000
    56 C56      1.2081   1.8360 -16.5627   C.ar      1 RES1   0.0000
    57 H57      1.6306   2.6570 -15.9930   H         1 RES1   0.0000
    58 C58     -0.3299   0.0111 -16.7453   C.ar      1 RES1   0.0000
    59 H59     -1.1171  -0.5950 -16.3094   H         1 RES1   0.0000
    60 C60      1.1307   0.5191 -18.5610   C.ar      1 RES1   0.0000
    61 H61      1.5012   0.3170 -19.5604   H         1 RES1   0.0000
    62 C62      1.6684   1.5670 -17.8328   C.ar      1 RES1   0.0000
    63 H63      2.4546   2.1775 -18.2644   H         1 RES1   0.0000
    64 C64      0.2095   1.0588 -16.0184   C.ar      1 RES1   0.0000
    65 H65     -0.1553   1.2677 -15.0183   H         1 RES1   0.0000
@<TRIPOS>BOND
     1     1     5   ar
     2     1     6   ar
     3     1     2    1
     4     3     8   ar
     5     3     9   ar
     6     3     4    1
     7     5     9   ar
     8     5    11    1
     9     6     8   ar
    10     6     7    1
    11     8    12    1
    12     9    10    1
    13    11    20    2
    14    11    23    1
    15    13    14    1
    16    13    23   am
    17    13    24    1
    18    14    31    1
    19    14    34    1
    20    14    15    1
    21    16    24    1
    22    16    17    1
    23    16    18    1
    24    16    19    1
    25    20    21    1
    26    20    24    1
    27    21    40   ar
    28    21    45   ar
    29    22    23    2
    30    25    34    1
    31    25    37    1
    32    25    26    1
    33    25    27    1
    34    28    31    1
    35    28    37    1
    36    28    29    1
    37    28    30    1
    38    31    32    1
    39    31    33    1
    40    34    35    1
    41    34    36    1
    42    37    38    1
    43    37    39    1
    44    40    47   ar
    45    41    45   ar
    46    41    48   ar
    47    41    42    1
    48    43    47    1
    49    43    49    1
    50    43    44    1
    51    45    46    1
    52    47    48   ar
    53    49    51    1
    54    49    52    1
    55    49    50    1
    56    51    58   ar
    57    51    60   ar
    58    52    53    1
    59    52    54    1
    60    52    55    1
    61    56    62   ar
    62    56    64   ar
    63    56    57    1
    64    58    64   ar
    65    58    59    1
    66    60    62   ar
    67    60    61    1
    68    62    63    1
    69    64    65    1
@<TRIPOS>SUBSTRUCTURE
     1 RES1        1 GROUP             0 ****  ****    0  
@<TRIPOS>MOLECULE
LIGAND_00132
    65    69     1     0     0
SMALL
USER_CHARGES
****
Generated from the CSD

@<TRIPOS>ATOM
     1 C1      -0.2149  -3.7289 -12.4495   C.ar      1 RES1   0.0000
     2 H2       0.7798  -4.0759 -12.7079   H         1 RES1   0.0000
     3 C3      -2.7386  -2.8041 -11.8111   C.ar      1 RES1   0.0000
     4 H4      -3.7267  -2.4306 -11.5637   H         1 RES1   0.0000
     5 C5      -1.3195  -4.5060 -12.7855   C.ar      1 RES1   0.0000
     6 C6      -0.3588  -2.5176 -11.7965   C.ar      1 RES1   0.0000
     7 H7       0.5089  -1.9233 -11.5301   H         1 RES1   0.0000
     8 C8      -1.6202  -2.0861 -11.4967   C.ar      1 RES1   0.0000
     9 C9      -2.5802  -4.0195 -12.4515   C.ar      1 RES1   0.0000
    10 H10     -3.4614  -4.6030 -12.6925   H         1 RES1   0.0000
    11 C11     -1.1796  -5.8184 -13.4962   C.2       1 RES1   0.0000
    12 F12     -1.7696  -0.8930 -10.8593   F         1 RES1   0.0000
    13 N13     -1.2309  -7.9424 -14.1510   N.am      1 RES1   0.0000
    14 C14     -1.4879  -9.4153 -14.2967   C.3       1 RES1   0.0000
    15 H15     -1.0682  -9.7390 -15.2480   H         1 RES1   0.0000
    16 C16     -0.2931  -7.6832 -16.4815   C.3       1 RES1   0.0000
    17 H17      0.3839  -7.0088 -17.0017   H         1 RES1   0.0000
    18 H18      0.1779  -8.6627 -16.4304   H         1 RES1   0.0000
    19 H19     -1.2022  -7.7742 -17.0722   H         1 RES1   0.0000
    20 C20     -0.5870  -5.9122 -14.7311   C.2       1 RES1   0.0000
    21 C21      0.0604  -4.8376 -15.5265   C.ar      1 RES1   0.0000
    22 O22     -2.1655  -7.5548 -12.1339   O.2       1 RES1   0.0000
    23 C23     -1.5894  -7.1341 -13.1286   C.2       1 RES1   0.0000
    24 N24     -0.5959  -7.1815 -15.1406   N.pl3     1 RES1   0.0000
    25 C25     -1.0208 -11.6894 -13.3285   C.3       1 RES1   0.0000
    26 H26     -0.5515 -12.2118 -12.4962   H         1 RES1   0.0000
    27 H27     -0.5835 -12.0321 -14.2651   H         1 RES1   0.0000
    28 C28     -3.2039 -11.2453 -14.4188   C.3       1 RES1   0.0000
    29 H29     -2.8316 -11.5872 -15.3834   H         1 RES1   0.0000
    30 H30     -4.2705 -11.4531 -14.3470   H         1 RES1   0.0000
    31 C31     -2.9783  -9.7456 -14.2996   C.3       1 RES1   0.0000
    32 H32     -3.4522  -9.2461 -15.1433   H         1 RES1   0.0000
    33 H33     -3.4235  -9.3912 -13.3711   H         1 RES1   0.0000
    34 C34     -0.7914 -10.1952 -13.1809   C.3       1 RES1   0.0000
    35 H35     -1.1857  -9.8687 -12.2198   H         1 RES1   0.0000
    36 H36      0.2782  -9.9945 -13.2216   H         1 RES1   0.0000
    37 N37     -2.4884 -11.9750 -13.3310   N.4       1 RES1   1.0000
    38 H38     -2.8778 -11.6925 -12.4372   H         1 RES1   0.0000
    39 H39     -2.6270 -12.9721 -13.4604   H         1 RES1   0.0000
    40 N40      1.3774  -4.6591 -15.3388   N.ar      1 RES1   0.0000
    41 C41      0.0602  -3.0675 -17.0834   C.ar      1 RES1   0.0000
    42 H42     -0.4737  -2.4365 -17.7862   H         1 RES1   0.0000
    43 N43      3.2815  -3.4798 -15.8307   N.pl3     1 RES1   0.0000
    44 H44      3.7520  -2.7687 -16.3904   H         1 RES1   0.0000
    45 C45     -0.6510  -4.0422 -16.4129   C.ar      1 RES1   0.0000
    46 H46     -1.7159  -4.1777 -16.5702   H         1 RES1   0.0000
    47 C47      1.9685  -3.6735 -16.0332   C.ar      1 RES1   0.0000
    48 N48      1.3719  -2.8567 -16.9137   N.ar      1 RES1   0.0000
    49 C49      4.0927  -4.2677 -14.9029   C.3       1 RES1   0.0000
    50 H50      4.0666  -5.3219 -15.2195   H         1 RES1   0.0000
    51 C51      3.5881  -4.1797 -13.4759   C.ar      1 RES1   0.0000
    52 C52      5.5285  -3.7661 -15.0033   C.3       1 RES1   0.0000
    53 H53      6.1850  -4.3419 -14.3544   H         1 RES1   0.0000
    54 H54      5.8988  -3.8526 -16.0227   H         1 RES1   0.0000
    55 H55      5.5919  -2.7210 -14.7076   H         1 RES1   0.0000
    56 C56      2.6630  -4.0026 -10.8542   C.ar      1 RES1   0.0000
    57 H57      2.3020  -3.9337  -9.8334   H         1 RES1   0.0000
    58 C58      3.5155  -2.9540 -12.8298   C.ar      1 RES1   0.0000
    59 H59      3.8231  -2.0540 -13.3518   H         1 RES1   0.0000
    60 C60      3.1915  -5.3165 -12.7850   C.ar      1 RES1   0.0000
    61 H61      3.2410  -6.2862 -13.2690   H         1 RES1   0.0000
    62 C62      2.7315  -5.2269 -11.4821   C.ar      1 RES1   0.0000
    63 H63      2.4242  -6.1237 -10.9546   H         1 RES1   0.0000
    64 C64      3.0546  -2.8663 -11.5272   C.ar      1 RES1   0.0000
    65 H65      3.0019  -1.9004 -11.0358   H         1 RES1   0.0000
@<TRIPOS>BOND
     1     1     5   ar
     2     1     6   ar
     3     1     2    1
     4     3     8   ar
     5     3     9   ar
     6     3     4    1
     7     5     9   ar
     8     5    11    1
     9     6     8   ar
    10     6     7    1
    11     8    12    1
    12     9    10    1
    13    11    20    2
    14    11    23    1
    15    13    14    1
    16    13    23   am
    17    13    24    1
    18    14    31    1
    19    14    34    1
    20    14    15    1
    21    16    24    1
    22    16    17    1
    23    16    18    1
    24    16    19    1
    25    20    21    1
    26    20    24    1
    27    21    40   ar
    28    21    45   ar
    29    22    23    2
    30    25    34    1
    31    25    37    1
    32    25    26    1
    33    25    27    1
    34    28    31    1
    35    28    37    1
    36    28    29    1
    37    28    30    1
    38    31    32    1
    39    31    33    1
    40    34    35    1
    41    34    36    1
    42    37    38    1
    43    37    39    1
    44    40    47   ar
    45    41    45   ar
    46    41    48   ar
    47    41    42    1
    48    43    47    1
    49    43    49    1
    50    43    44    1
    51    45    46    1
    52    47    48   ar
    53    49    51    1
    54    49    52    1
    55    49    50    1
    56    51    58   ar
    57    51    60   ar
    58    52    53    1
    59    52    54    1
    60    52    55    1
    61    56    62   ar
    62    56    64   ar
    63    56    57    1
    64    58    64   ar
    65    58    59    1
    66    60    62   ar
    67    60    61    1
    68    62    63    1
    69    64    65    1
@<TRIPOS>SUBSTRUCTURE
     1 RES1        1 GROUP             0 ****  ****    0  
@<TRIPOS>MOLECULE
LIGAND_00133
    65    69     1     0     0
SMALL
USER_CHARGES
****
Generated from the CSD

@<TRIPOS>ATOM
     1 C1      -1.4352  -3.4527 -15.0985   C.ar      1 RES1   0.0000
     2 H2      -2.4255  -3.6380 -14.6966   H         1 RES1   0.0000
     3 C3       1.0895  -2.9417 -16.0968   C.ar      1 RES1   0.0000
     4 H4       2.0809  -2.7309 -16.4839   H         1 RES1   0.0000
     5 C5      -0.4806  -4.4646 -15.0597   C.ar      1 RES1   0.0000
     6 C6      -1.1460  -2.2104 -15.6348   C.ar      1 RES1   0.0000
     7 H7      -1.8997  -1.4309 -15.6694   H         1 RES1   0.0000
     8 C8       0.1125  -1.9876 -16.1182   C.ar      1 RES1   0.0000
     9 C9       0.7835  -4.1833 -15.5705   C.ar      1 RES1   0.0000
    10 H10      1.5484  -4.9514 -15.5620   H         1 RES1   0.0000
    11 C11     -0.7779  -5.8140 -14.4784   C.2       1 RES1   0.0000
    12 F12      0.4057  -0.7664 -16.6422   F         1 RES1   0.0000
    13 N13     -1.0758  -7.9799 -14.0751   N.am      1 RES1   0.0000
    14 C14     -1.1215  -9.4800 -14.1392   C.3       1 RES1   0.0000
    15 H15     -0.8023  -9.7855 -15.1346   H         1 RES1   0.0000
    16 C16     -1.5282  -7.8834 -11.5924   C.3       1 RES1   0.0000
    17 H17     -2.0810  -7.2262 -10.9244   H         1 RES1   0.0000
    18 H18     -2.0768  -8.8192 -11.6770   H         1 RES1   0.0000
    19 H19     -0.5629  -8.0959 -11.1377   H         1 RES1   0.0000
    20 C20     -1.1594  -5.9688 -13.1688   C.2       1 RES1   0.0000
    21 C21     -1.4160  -4.9157 -12.1531   C.ar      1 RES1   0.0000
    22 O22     -0.4341  -7.4929 -16.1831   O.2       1 RES1   0.0000
    23 C23     -0.7294  -7.1170 -15.0562   C.2       1 RES1   0.0000
    24 N24     -1.3553  -7.2616 -12.9057   N.pl3     1 RES1   0.0000
    25 C25     -0.1718 -11.6082 -13.1928   C.3       1 RES1   0.0000
    26 H26      0.4902 -12.0129 -12.4286   H         1 RES1   0.0000
    27 H27      0.1697 -11.9292 -14.1758   H         1 RES1   0.0000
    28 C28     -2.5342 -11.5478 -13.9460   C.3       1 RES1   0.0000
    29 H29     -2.2605 -11.8789 -14.9467   H         1 RES1   0.0000
    30 H30     -3.5336 -11.9074 -13.7054   H         1 RES1   0.0000
    31 C31     -2.5272 -10.0272 -13.9039   C.3       1 RES1   0.0000
    32 H32     -3.1918  -9.6464 -14.6780   H         1 RES1   0.0000
    33 H33     -2.8794  -9.6963 -12.9280   H         1 RES1   0.0000
    34 C34     -0.1559 -10.0911 -13.1230   C.3       1 RES1   0.0000
    35 H35     -0.4494  -9.7786 -12.1220   H         1 RES1   0.0000
    36 H36      0.8520  -9.7365 -13.3332   H         1 RES1   0.0000
    37 N37     -1.5620 -12.1078 -12.9617   N.4       1 RES1   1.0000
    38 H38     -1.8537 -11.8415 -12.0267   H         1 RES1   0.0000
    39 H39     -1.5629 -13.1197 -13.0411   H         1 RES1   0.0000
    40 N40     -0.5363  -3.9033 -12.0992   N.ar      1 RES1   0.0000
    41 C41     -2.6224  -3.9386 -10.3792   C.ar      1 RES1   0.0000
    42 H42     -3.4652  -3.9562  -9.6960   H         1 RES1   0.0000
    43 N43      0.1472  -1.9567 -11.0984   N.pl3     1 RES1   0.0000
    44 H44     -0.0253  -1.2090 -10.4263   H         1 RES1   0.0000
    45 C45     -2.4995  -4.9698 -11.2885   C.ar      1 RES1   0.0000
    46 H46     -3.2150  -5.7847 -11.3233   H         1 RES1   0.0000
    47 C47     -0.7437  -2.9588 -11.1676   C.ar      1 RES1   0.0000
    48 N48     -1.7589  -2.9185 -10.2924   N.ar      1 RES1   0.0000
    49 C49      1.3161  -1.8375 -11.9696   C.3       1 RES1   0.0000
    50 H50      1.0645  -2.2562 -12.9563   H         1 RES1   0.0000
    51 C51      2.5214  -2.5780 -11.4241   C.ar      1 RES1   0.0000
    52 C52      1.6198  -0.3530 -12.1353   C.3       1 RES1   0.0000
    53 H53      2.4652  -0.2040 -12.8037   H         1 RES1   0.0000
    54 H54      0.7630   0.1739 -12.5501   H         1 RES1   0.0000
    55 H55      1.8632   0.0987 -11.1759   H         1 RES1   0.0000
    56 C56      4.7308  -3.9363 -10.4074   C.ar      1 RES1   0.0000
    57 H57      5.5910  -4.4660 -10.0116   H         1 RES1   0.0000
    58 C58      2.6941  -2.7293 -10.0558   C.ar      1 RES1   0.0000
    59 H59      1.9600  -2.3132  -9.3738   H         1 RES1   0.0000
    60 C60      3.4764  -3.1170 -12.2752   C.ar      1 RES1   0.0000
    61 H61      3.3636  -3.0098 -13.3489   H         1 RES1   0.0000
    62 C62      4.5739  -3.7923 -11.7684   C.ar      1 RES1   0.0000
    63 H63      5.3120  -4.2089 -12.4456   H         1 RES1   0.0000
    64 C64      3.7917  -3.4054  -9.5509   C.ar      1 RES1   0.0000
    65 H65      3.9120  -3.5172  -8.4785   H         1 RES1   0.0000
@<TRIPOS>BOND
     1     1     5   ar
     2     1     6   ar
     3     1     2    1
     4     3     8   ar
     5     3     9   ar
     6     3     4    1
     7     5     9   ar
     8     5    11    1
     9     6     8   ar
    10     6     7    1
    11     8    12    1
    12     9    10    1
    13    11    20    2
    14    11    23    1
    15    13    14    1
    16    13    23   am
    17    13    24    1
    18    14    31    1
    19    14    34    1
    20    14    15    1
    21    16    24    1
    22    16    17    1
    23    16    18    1
    24    16    19    1
    25    20    21    1
    26    20    24    1
    27    21    40   ar
    28    21    45   ar
    29    22    23    2
    30    25    34    1
    31    25    37    1
    32    25    26    1
    33    25    27    1
    34    28    31    1
    35    28    37    1
    36    28    29    1
    37    28    30    1
    38    31    32    1
    39    31    33    1
    40    34    35    1
    41    34    36    1
    42    37    38    1
    43    37    39    1
    44    40    47   ar
    45    41    45   ar
    46    41    48   ar
    47    41    42    1
    48    43    47    1
    49    43    49    1
    50    43    44    1
    51    45    46    1
    52    47    48   ar
    53    49    51    1
    54    49    52    1
    55    49    50    1
    56    51    58   ar
    57    51    60   ar
    58    52    53    1
    59    52    54    1
    60    52    55    1
    61    56    62   ar
    62    56    64   ar
    63    56    57    1
    64    58    64   ar
    65    58    59    1
    66    60    62   ar
    67    60    61    1
    68    62    63    1
    69    64    65    1
@<TRIPOS>SUBSTRUCTURE
     1 RES1        1 GROUP             0 ****  ****    0  
@<TRIPOS>MOLECULE
LIGAND_00134
    65    69     1     0     0
SMALL
USER_CHARGES
****
Generated from the CSD

@<TRIPOS>ATOM
     1 C1      -1.4465  -4.1178 -11.8045   C.ar      1 RES1   0.0000
     2 H2      -0.9513  -4.8653 -11.1941   H         1 RES1   0.0000
     3 C3      -2.6749  -2.1831 -13.3471   C.ar      1 RES1   0.0000
     4 H4      -3.1503  -1.4155 -13.9487   H         1 RES1   0.0000
     5 C5      -1.7804  -4.4210 -13.1210   C.ar      1 RES1   0.0000
     6 C6      -1.7280  -2.8783 -11.2576   C.ar      1 RES1   0.0000
     7 H7      -1.4725  -2.6545 -10.2273   H         1 RES1   0.0000
     8 C8      -2.3338  -1.9416 -12.0468   C.ar      1 RES1   0.0000
     9 C9      -2.4003  -3.4303 -13.8773   C.ar      1 RES1   0.0000
    10 H10     -2.6801  -3.6358 -14.9043   H         1 RES1   0.0000
    11 C11     -1.4784  -5.7579 -13.7283   C.2       1 RES1   0.0000
    12 F12     -2.6088  -0.7186 -11.5173   F         1 RES1   0.0000
    13 N13     -1.2325  -7.9404 -14.1482   N.am      1 RES1   0.0000
    14 C14     -1.4901  -9.4132 -14.2926   C.3       1 RES1   0.0000
    15 H15     -1.0550  -9.7415 -15.2354   H         1 RES1   0.0000
    16 C16      0.6118  -7.8048 -15.7564   C.3       1 RES1   0.0000
    17 H17      1.0895  -7.1021 -16.4361   H         1 RES1   0.0000
    18 H18      1.3305  -8.0702 -14.9839   H         1 RES1   0.0000
    19 H19      0.3667  -8.7051 -16.3158   H         1 RES1   0.0000
    20 C20     -0.6831  -5.9011 -14.8182   C.2       1 RES1   0.0000
    21 C21      0.0470  -4.8479 -15.5693   C.ar      1 RES1   0.0000
    22 O22     -2.6141  -7.4297 -12.3727   O.2       1 RES1   0.0000
    23 C23     -1.8754  -7.0689 -13.2796   C.2       1 RES1   0.0000
    24 N24     -0.5925  -7.2187 -15.1669   N.3       1 RES1   0.0000
    25 C25     -1.0446 -11.6845 -13.3080   C.3       1 RES1   0.0000
    26 H26     -0.5908 -12.2047 -12.4657   H         1 RES1   0.0000
    27 H27     -0.5921 -12.0318 -14.2356   H         1 RES1   0.0000
    28 C28     -3.2079 -11.2401 -14.4371   C.3       1 RES1   0.0000
    29 H29     -2.8199 -11.5865 -15.3938   H         1 RES1   0.0000
    30 H30     -4.2759 -11.4454 -14.3827   H         1 RES1   0.0000
    31 C31     -2.9811  -9.7404 -14.3198   C.3       1 RES1   0.0000
    32 H32     -3.4393  -9.2431 -15.1733   H         1 RES1   0.0000
    33 H33     -3.4413  -9.3815 -13.4004   H         1 RES1   0.0000
    34 C34     -0.8145 -10.1904 -13.1621   C.3       1 RES1   0.0000
    35 H35     -1.2245  -9.8593 -12.2092   H         1 RES1   0.0000
    36 H36      0.2560  -9.9920 -13.1853   H         1 RES1   0.0000
    37 N37     -2.5126 -11.9671 -13.3344   N.4       1 RES1   1.0000
    38 H38     -2.9166 -11.6804 -12.4485   H         1 RES1   0.0000
    39 H39     -2.6511 -12.9644 -13.4624   H         1 RES1   0.0000
    40 N40     -0.2781  -4.6951 -16.8626   N.ar      1 RES1   0.0000
    41 C41      1.6440  -3.1275 -15.7856   C.ar      1 RES1   0.0000
    42 H42      2.4101  -2.4980 -15.3452   H         1 RES1   0.0000
    43 N43      0.0844  -3.6241 -18.8576   N.pl3     1 RES1   0.0000
    44 H44      0.5291  -2.8668 -19.3763   H         1 RES1   0.0000
    45 C45      1.0270  -4.0630 -14.9796   C.ar      1 RES1   0.0000
    46 H46      1.2979  -4.1801 -13.9355   H         1 RES1   0.0000
    47 C47      0.3935  -3.7635 -17.5585   C.ar      1 RES1   0.0000
    48 N48      1.3504  -2.9545 -17.0808   N.ar      1 RES1   0.0000
    49 C49     -0.8974  -4.4503 -19.5598   C.3       1 RES1   0.0000
    50 H50     -1.8669  -4.3589 -19.0460   H         1 RES1   0.0000
    51 C51     -0.5040  -5.9141 -19.5914   C.ar      1 RES1   0.0000
    52 C52     -1.0424  -3.8960 -20.9722   C.3       1 RES1   0.0000
    53 H53     -1.6495  -4.5578 -21.5864   H         1 RES1   0.0000
    54 H54     -1.5172  -2.9172 -20.9576   H         1 RES1   0.0000
    55 H55     -0.0686  -3.7930 -21.4464   H         1 RES1   0.0000
    56 C56      0.2276  -8.6011 -19.6622   C.ar      1 RES1   0.0000
    57 H57      0.5130  -9.6475 -19.6892   H         1 RES1   0.0000
    58 C58      0.3350  -6.3957 -20.5860   C.ar      1 RES1   0.0000
    59 H59      0.7102  -5.7176 -21.3454   H         1 RES1   0.0000
    60 C60     -0.9727  -6.8026 -18.6335   C.ar      1 RES1   0.0000
    61 H61     -1.6314  -6.4495 -17.8471   H         1 RES1   0.0000
    62 C62     -0.6079  -8.1379 -18.6698   C.ar      1 RES1   0.0000
    63 H63     -0.9815  -8.8208 -17.9140   H         1 RES1   0.0000
    64 C64      0.6993  -7.7309 -20.6202   C.ar      1 RES1   0.0000
    65 H65      1.3576  -8.0923 -21.4032   H         1 RES1   0.0000
@<TRIPOS>BOND
     1     1     5   ar
     2     1     6   ar
     3     1     2    1
     4     3     8   ar
     5     3     9   ar
     6     3     4    1
     7     5     9   ar
     8     5    11    1
     9     6     8   ar
    10     6     7    1
    11     8    12    1
    12     9    10    1
    13    11    20    2
    14    11    23    1
    15    13    14    1
    16    13    23   am
    17    13    24    1
    18    14    31    1
    19    14    34    1
    20    14    15    1
    21    16    24    1
    22    16    17    1
    23    16    18    1
    24    16    19    1
    25    20    21    1
    26    20    24    1
    27    21    40   ar
    28    21    45   ar
    29    22    23    2
    30    25    34    1
    31    25    37    1
    32    25    26    1
    33    25    27    1
    34    28    31    1
    35    28    37    1
    36    28    29    1
    37    28    30    1
    38    31    32    1
    39    31    33    1
    40    34    35    1
    41    34    36    1
    42    37    38    1
    43    37    39    1
    44    40    47   ar
    45    41    45   ar
    46    41    48   ar
    47    41    42    1
    48    43    47    1
    49    43    49    1
    50    43    44    1
    51    45    46    1
    52    47    48   ar
    53    49    51    1
    54    49    52    1
    55    49    50    1
    56    51    58   ar
    57    51    60   ar
    58    52    53    1
    59    52    54    1
    60    52    55    1
    61    56    62   ar
    62    56    64   ar
    63    56    57    1
    64    58    64   ar
    65    58    59    1
    66    60    62   ar
    67    60    61    1
    68    62    63    1
    69    64    65    1
@<TRIPOS>SUBSTRUCTURE
     1 RES1        1 GROUP             0 ****  ****    0  
@<TRIPOS>MOLECULE
LIGAND_00135
    65    69     1     0     0
SMALL
USER_CHARGES
****
Generated from the CSD

@<TRIPOS>ATOM
     1 C1      -1.1705  -3.4198 -15.0825   C.ar      1 RES1   0.0000
     2 H2      -2.1960  -3.5543 -14.7558   H         1 RES1   0.0000
     3 C3       1.4441  -3.0387 -15.8888   C.ar      1 RES1   0.0000
     4 H4       2.4710  -2.8789 -16.2005   H         1 RES1   0.0000
     5 C5      -0.2775  -4.4830 -14.9892   C.ar      1 RES1   0.0000
     6 C6      -0.7761  -2.1900 -15.5791   C.ar      1 RES1   0.0000
     7 H7      -1.4820  -1.3698 -15.6570   H         1 RES1   0.0000
     8 C8       0.5245  -2.0320 -15.9673   C.ar      1 RES1   0.0000
     9 C9       1.0337  -4.2668 -15.4035   C.ar      1 RES1   0.0000
    10 H10      1.7533  -5.0758 -15.3507   H         1 RES1   0.0000
    11 C11     -0.6892  -5.8198 -14.4499   C.2       1 RES1   0.0000
    12 F12      0.9208  -0.8236 -16.4515   F         1 RES1   0.0000
    13 N13     -1.1382  -7.9692 -14.1019   N.am      1 RES1   0.0000
    14 C14     -1.2681  -9.4630 -14.1940   C.3       1 RES1   0.0000
    15 H15     -0.9096  -9.7735 -15.1743   H         1 RES1   0.0000
    16 C16     -1.7370  -7.8785 -11.6502   C.3       1 RES1   0.0000
    17 H17     -2.3108  -7.2069 -11.0150   H         1 RES1   0.0000
    18 H18     -2.3135  -8.7914 -11.7856   H         1 RES1   0.0000
    19 H19     -0.8156  -8.1329 -11.1306   H         1 RES1   0.0000
    20 C20     -1.1594  -5.9688 -13.1688   C.2       1 RES1   0.0000
    21 C21     -1.4160  -4.9157 -12.1531   C.ar      1 RES1   0.0000
    22 O22     -0.3398  -7.4938 -16.1584   O.2       1 RES1   0.0000
    23 C23     -0.6817  -7.1157 -15.0455   C.2       1 RES1   0.0000
    24 N24     -1.4469  -7.2510 -12.9399   N.pl3     1 RES1   0.0000
    25 C25     -0.5019 -11.6565 -13.2304   C.3       1 RES1   0.0000
    26 H26      0.0893 -12.1100 -12.4363   H         1 RES1   0.0000
    27 H27     -0.1229 -11.9839 -14.1974   H         1 RES1   0.0000
    28 C28     -2.8085 -11.4454 -14.1175   C.3       1 RES1   0.0000
    29 H29     -2.4965 -11.7787 -15.1062   H         1 RES1   0.0000
    30 H30     -3.8397 -11.7480 -13.9411   H         1 RES1   0.0000
    31 C31     -2.7148  -9.9286 -14.0494   C.3       1 RES1   0.0000
    32 H32     -3.3094  -9.4985 -14.8540   H         1 RES1   0.0000
    33 H33     -3.1035  -9.5904 -13.0900   H         1 RES1   0.0000
    34 C34     -0.4012 -10.1441 -13.1342   C.3       1 RES1   0.0000
    35 H35     -0.7339  -9.8281 -12.1466   H         1 RES1   0.0000
    36 H36      0.6364  -9.8473 -13.2799   H         1 RES1   0.0000
    37 N37     -1.9302 -12.0755 -13.0884   N.4       1 RES1   1.0000
    38 H38     -2.2600 -11.8049 -12.1674   H         1 RES1   0.0000
    39 H39     -1.9858 -13.0843 -13.1848   H         1 RES1   0.0000
    40 N40     -2.5040  -5.0736 -11.3829   N.ar      1 RES1   0.0000
    41 C41     -0.9401  -2.8952 -11.0360   C.ar      1 RES1   0.0000
    42 H42     -0.3048  -2.0264 -10.8983   H         1 RES1   0.0000
    43 N43     -3.8600  -4.2605  -9.7221   N.pl3     1 RES1   0.0000
    44 H44     -4.4663  -5.0593  -9.9085   H         1 RES1   0.0000
    45 C45     -0.5883  -3.8123 -12.0057   C.ar      1 RES1   0.0000
    46 H46      0.2923  -3.6750 -12.6245   H         1 RES1   0.0000
    47 C47     -2.7605  -4.1147 -10.4787   C.ar      1 RES1   0.0000
    48 N48     -2.0225  -3.0172 -10.2566   N.ar      1 RES1   0.0000
    49 C49     -4.2763  -3.3116  -8.6897   C.3       1 RES1   0.0000
    50 H50     -3.3839  -2.7913  -8.3087   H         1 RES1   0.0000
    51 C51     -4.9720  -3.9913  -7.5267   C.ar      1 RES1   0.0000
    52 C52     -5.1926  -2.2860  -9.3467   C.3       1 RES1   0.0000
    53 H53     -5.5080  -1.5331  -8.6275   H         1 RES1   0.0000
    54 H54     -4.6847  -1.7807 -10.1654   H         1 RES1   0.0000
    55 H55     -6.0833  -2.7667  -9.7460   H         1 RES1   0.0000
    56 C56     -6.2562  -5.2509  -5.3996   C.ar      1 RES1   0.0000
    57 H57     -6.7557  -5.7417  -4.5709   H         1 RES1   0.0000
    58 C58     -5.7555  -5.1171  -7.7363   C.ar      1 RES1   0.0000
    59 H59     -5.8696  -5.5111  -8.7407   H         1 RES1   0.0000
    60 C60     -4.8446  -3.5054  -6.2327   C.ar      1 RES1   0.0000
    61 H61     -4.2386  -2.6253  -6.0445   H         1 RES1   0.0000
    62 C62     -5.4833  -4.1327  -5.1763   C.ar      1 RES1   0.0000
    63 H63     -5.3741  -3.7420  -4.1701   H         1 RES1   0.0000
    64 C64     -6.3927  -5.7434  -6.6787   C.ar      1 RES1   0.0000
    65 H65     -7.0006  -6.6240  -6.8581   H         1 RES1   0.0000
@<TRIPOS>BOND
     1     1     5   ar
     2     1     6   ar
     3     1     2    1
     4     3     8   ar
     5     3     9   ar
     6     3     4    1
     7     5     9   ar
     8     5    11    1
     9     6     8   ar
    10     6     7    1
    11     8    12    1
    12     9    10    1
    13    11    20    2
    14    11    23    1
    15    13    14    1
    16    13    23   am
    17    13    24    1
    18    14    31    1
    19    14    34    1
    20    14    15    1
    21    16    24    1
    22    16    17    1
    23    16    18    1
    24    16    19    1
    25    20    21    1
    26    20    24    1
    27    21    40   ar
    28    21    45   ar
    29    22    23    2
    30    25    34    1
    31    25    37    1
    32    25    26    1
    33    25    27    1
    34    28    31    1
    35    28    37    1
    36    28    29    1
    37    28    30    1
    38    31    32    1
    39    31    33    1
    40    34    35    1
    41    34    36    1
    42    37    38    1
    43    37    39    1
    44    40    47   ar
    45    41    45   ar
    46    41    48   ar
    47    41    42    1
    48    43    47    1
    49    43    49    1
    50    43    44    1
    51    45    46    1
    52    47    48   ar
    53    49    51    1
    54    49    52    1
    55    49    50    1
    56    51    58   ar
    57    51    60   ar
    58    52    53    1
    59    52    54    1
    60    52    55    1
    61    56    62   ar
    62    56    64   ar
    63    56    57    1
    64    58    64   ar
    65    58    59    1
    66    60    62   ar
    67    60    61    1
    68    62    63    1
    69    64    65    1
@<TRIPOS>SUBSTRUCTURE
     1 RES1        1 GROUP             0 ****  ****    0  
@<TRIPOS>MOLECULE
LIGAND_00136
    65    69     1     0     0
SMALL
USER_CHARGES
****
Generated from the CSD

@<TRIPOS>ATOM
     1 C1      -1.1701  -3.4197 -15.0826   C.ar      1 RES1   0.0000
     2 H2      -2.1957  -3.5542 -14.7560   H         1 RES1   0.0000
     3 C3       1.4447  -3.0388 -15.8884   C.ar      1 RES1   0.0000
     4 H4       2.4716  -2.8791 -16.1999   H         1 RES1   0.0000
     5 C5      -0.2772  -4.4831 -14.9891   C.ar      1 RES1   0.0000
     6 C6      -0.7756  -2.1900 -15.5791   C.ar      1 RES1   0.0000
     7 H7      -1.4814  -1.3698 -15.6571   H         1 RES1   0.0000
     8 C8       0.5251  -2.0321 -15.9670   C.ar      1 RES1   0.0000
     9 C9       1.0341  -4.2669 -15.4032   C.ar      1 RES1   0.0000
    10 H10      1.7536  -5.0760 -15.3502   H         1 RES1   0.0000
    11 C11     -0.6890  -5.8198 -14.4499   C.2       1 RES1   0.0000
    12 F12      0.9216  -0.8237 -16.4512   F         1 RES1   0.0000
    13 N13     -1.1383  -7.9692 -14.1020   N.am      1 RES1   0.0000
    14 C14     -1.2683  -9.4629 -14.1941   C.3       1 RES1   0.0000
    15 H15     -0.9097  -9.7735 -15.1743   H         1 RES1   0.0000
    16 C16     -1.7373  -7.8785 -11.6503   C.3       1 RES1   0.0000
    17 H17     -2.3110  -7.2068 -11.0151   H         1 RES1   0.0000
    18 H18     -2.3139  -8.7912 -11.7857   H         1 RES1   0.0000
    19 H19     -0.8160  -8.1331 -11.1307   H         1 RES1   0.0000
    20 C20     -1.1594  -5.9688 -13.1688   C.2       1 RES1   0.0000
    21 C21     -1.4160  -4.9157 -12.1531   C.ar      1 RES1   0.0000
    22 O22     -0.3397  -7.4938 -16.1583   O.2       1 RES1   0.0000
    23 C23     -0.6816  -7.1157 -15.0455   C.2       1 RES1   0.0000
    24 N24     -1.4470  -7.2509 -12.9399   N.pl3     1 RES1   0.0000
    25 C25     -0.5025 -11.6565 -13.2305   C.3       1 RES1   0.0000
    26 H26      0.0885 -12.1102 -12.4362   H         1 RES1   0.0000
    27 H27     -0.1233 -11.9840 -14.1974   H         1 RES1   0.0000
    28 C28     -2.8090 -11.4452 -14.1179   C.3       1 RES1   0.0000
    29 H29     -2.4969 -11.7785 -15.1065   H         1 RES1   0.0000
    30 H30     -3.8401 -11.7477 -13.9416   H         1 RES1   0.0000
    31 C31     -2.7151  -9.9284 -14.0497   C.3       1 RES1   0.0000
    32 H32     -3.3095  -9.4982 -14.8544   H         1 RES1   0.0000
    33 H33     -3.1039  -9.5903 -13.0904   H         1 RES1   0.0000
    34 C34     -0.4016 -10.1441 -13.1342   C.3       1 RES1   0.0000
    35 H35     -0.7345  -9.8282 -12.1466   H         1 RES1   0.0000
    36 H36      0.6360  -9.8475 -13.2797   H         1 RES1   0.0000
    37 N37     -1.9308 -12.0754 -13.0886   N.4       1 RES1   1.0000
    38 H38     -2.2607 -11.8048 -12.1677   H         1 RES1   0.0000
    39 H39     -1.9865 -13.0843 -13.1850   H         1 RES1   0.0000
    40 N40     -2.5040  -5.0736 -11.3829   N.ar      1 RES1   0.0000
    41 C41     -0.9401  -2.8952 -11.0360   C.ar      1 RES1   0.0000
    42 H42     -0.3048  -2.0264 -10.8983   H         1 RES1   0.0000
    43 N43     -3.8600  -4.2605  -9.7221   N.pl3     1 RES1   0.0000
    44 H44     -4.0379  -3.5647  -8.9979   H         1 RES1   0.0000
    45 C45     -0.5883  -3.8123 -12.0057   C.ar      1 RES1   0.0000
    46 H46      0.2923  -3.6750 -12.6245   H         1 RES1   0.0000
    47 C47     -2.7605  -4.1147 -10.4787   C.ar      1 RES1   0.0000
    48 N48     -2.0225  -3.0172 -10.2566   N.ar      1 RES1   0.0000
    49 C49     -4.7850  -5.3885  -9.8293   C.3       1 RES1   0.0000
    50 H50     -4.7363  -5.7881 -10.8541   H         1 RES1   0.0000
    51 C51     -6.2179  -4.9909  -9.5339   C.ar      1 RES1   0.0000
    52 C52     -4.3109  -6.4686  -8.8640   C.3       1 RES1   0.0000
    53 H53     -4.9475  -7.3487  -8.9262   H         1 RES1   0.0000
    54 H54     -3.2910  -6.7715  -9.0919   H         1 RES1   0.0000
    55 H55     -4.3351  -6.1051  -7.8388   H         1 RES1   0.0000
    56 C56     -8.8458  -4.2499  -8.9809   C.ar      1 RES1   0.0000
    57 H57     -9.8692  -3.9610  -8.7662   H         1 RES1   0.0000
    58 C58     -6.4956  -4.0019  -8.6013   C.ar      1 RES1   0.0000
    59 H59     -5.6794  -3.5117  -8.0810   H         1 RES1   0.0000
    60 C60     -7.2800  -5.6048 -10.1836   C.ar      1 RES1   0.0000
    61 H61     -7.0876  -6.3821 -10.9156   H         1 RES1   0.0000
    62 C62     -8.5857  -5.2351  -9.9079   C.ar      1 RES1   0.0000
    63 H63     -9.4058  -5.7231 -10.4239   H         1 RES1   0.0000
    64 C64     -7.8017  -3.6331  -8.3275   C.ar      1 RES1   0.0000
    65 H65     -8.0028  -2.8567  -7.5969   H         1 RES1   0.0000
@<TRIPOS>BOND
     1     1     5   ar
     2     1     6   ar
     3     1     2    1
     4     3     8   ar
     5     3     9   ar
     6     3     4    1
     7     5     9   ar
     8     5    11    1
     9     6     8   ar
    10     6     7    1
    11     8    12    1
    12     9    10    1
    13    11    20    2
    14    11    23    1
    15    13    14    1
    16    13    23   am
    17    13    24    1
    18    14    31    1
    19    14    34    1
    20    14    15    1
    21    16    24    1
    22    16    17    1
    23    16    18    1
    24    16    19    1
    25    20    21    1
    26    20    24    1
    27    21    40   ar
    28    21    45   ar
    29    22    23    2
    30    25    34    1
    31    25    37    1
    32    25    26    1
    33    25    27    1
    34    28    31    1
    35    28    37    1
    36    28    29    1
    37    28    30    1
    38    31    32    1
    39    31    33    1
    40    34    35    1
    41    34    36    1
    42    37    38    1
    43    37    39    1
    44    40    47   ar
    45    41    45   ar
    46    41    48   ar
    47    41    42    1
    48    43    47    1
    49    43    49    1
    50    43    44    1
    51    45    46    1
    52    47    48   ar
    53    49    51    1
    54    49    52    1
    55    49    50    1
    56    51    58   ar
    57    51    60   ar
    58    52    53    1
    59    52    54    1
    60    52    55    1
    61    56    62   ar
    62    56    64   ar
    63    56    57    1
    64    58    64   ar
    65    58    59    1
    66    60    62   ar
    67    60    61    1
    68    62    63    1
    69    64    65    1
@<TRIPOS>SUBSTRUCTURE
     1 RES1        1 GROUP             0 ****  ****    0  
@<TRIPOS>MOLECULE
LIGAND_00137
    65    69     1     0     0
SMALL
USER_CHARGES
****
Generated from the CSD

@<TRIPOS>ATOM
     1 C1      -0.0623  -3.9115 -15.8986   C.ar      1 RES1   0.0000
     2 H2      -0.8417  -4.2913 -16.5504   H         1 RES1   0.0000
     3 C3       1.9021  -2.9024 -14.2390   C.ar      1 RES1   0.0000
     4 H4       2.6695  -2.4956 -13.5887   H         1 RES1   0.0000
     5 C5       0.2510  -4.6025 -14.7318   C.ar      1 RES1   0.0000
     6 C6       0.5965  -2.7446 -16.2430   C.ar      1 RES1   0.0000
     7 H7       0.3519  -2.2181 -17.1595   H         1 RES1   0.0000
     8 C8       1.5615  -2.2694 -15.4002   C.ar      1 RES1   0.0000
     9 C9       1.2456  -4.0750 -13.9131   C.ar      1 RES1   0.0000
    10 H10      1.5190  -4.5919 -13.0004   H         1 RES1   0.0000
    11 C11     -0.4566  -5.8657 -14.3436   C.2       1 RES1   0.0000
    12 F12      2.2098  -1.1192 -15.7299   F         1 RES1   0.0000
    13 N13     -1.2977  -7.9184 -14.1949   N.am      1 RES1   0.0000
    14 C14     -1.6472  -9.3662 -14.3900   C.3       1 RES1   0.0000
    15 H15     -1.1918  -9.7013 -15.3208   H         1 RES1   0.0000
    16 C16     -2.2897  -7.7957 -11.8758   C.3       1 RES1   0.0000
    17 H17     -2.9094  -7.0734 -11.3484   H         1 RES1   0.0000
    18 H18     -2.9157  -8.6421 -12.1505   H         1 RES1   0.0000
    19 H19     -1.5224  -8.1493 -11.1904   H         1 RES1   0.0000
    20 C20     -1.1594  -5.9688 -13.1688   C.2       1 RES1   0.0000
    21 C21     -1.4160  -4.9157 -12.1531   C.ar      1 RES1   0.0000
    22 O22     -0.0893  -7.5273 -16.0603   O.2       1 RES1   0.0000
    23 C23     -0.5538  -7.1279 -15.0005   C.2       1 RES1   0.0000
    24 N24     -1.6838  -7.1905 -13.0624   N.pl3     1 RES1   0.0000
    25 C25     -1.4023 -11.6854 -13.4474   C.3       1 RES1   0.0000
    26 H26     -1.0243 -12.2553 -12.5999   H         1 RES1   0.0000
    27 H27     -0.9317 -12.0410 -14.3629   H         1 RES1   0.0000
    28 C28     -3.4757 -11.0669 -14.6601   C.3       1 RES1   0.0000
    29 H29     -3.0679 -11.4165 -15.6074   H         1 RES1   0.0000
    30 H30     -4.5566 -11.1996 -14.6591   H         1 RES1   0.0000
    31 C31     -3.1539  -9.5896 -14.4927   C.3       1 RES1   0.0000
    32 H32     -3.5373  -9.0419 -15.3524   H         1 RES1   0.0000
    33 H33     -3.6311  -9.2216 -13.5856   H         1 RES1   0.0000
    34 C34     -1.0789 -10.2144 -13.2516   C.3       1 RES1   0.0000
    35 H35     -1.5094  -9.8785 -12.3094   H         1 RES1   0.0000
    36 H36      0.0025 -10.0896 -13.2215   H         1 RES1   0.0000
    37 N37     -2.8832 -11.8658 -13.5472   N.4       1 RES1   1.0000
    38 H38     -3.3077 -11.5730 -12.6729   H         1 RES1   0.0000
    39 H39     -3.0827 -12.8479 -13.7079   H         1 RES1   0.0000
    40 N40     -1.4457  -5.3100 -10.8704   N.ar      1 RES1   0.0000
    41 C41     -1.8713  -2.7071 -11.4663   C.ar      1 RES1   0.0000
    42 H42     -2.0353  -1.6631 -11.7123   H         1 RES1   0.0000
    43 N43     -1.7536  -4.7680  -8.6637   N.pl3     1 RES1   0.0000
    44 H44     -1.6474  -5.7631  -8.4665   H         1 RES1   0.0000
    45 C45     -1.6289  -3.5895 -12.4997   C.ar      1 RES1   0.0000
    46 H46     -1.6086  -3.2613 -13.5337   H         1 RES1   0.0000
    47 C47     -1.7025  -4.3713  -9.9453   C.ar      1 RES1   0.0000
    48 N48     -1.9163  -3.0679 -10.1773   N.ar      1 RES1   0.0000
    49 C49     -2.0149  -3.8714  -7.5379   C.3       1 RES1   0.0000
    50 H50     -1.6836  -2.8574  -7.8106   H         1 RES1   0.0000
    51 C51     -1.2838  -4.2958  -6.2793   C.ar      1 RES1   0.0000
    52 C52     -3.5214  -3.8446  -7.3082   C.3       1 RES1   0.0000
    53 H53     -3.7766  -3.1643  -6.4983   H         1 RES1   0.0000
    54 H54     -4.0443  -3.5160  -8.2040   H         1 RES1   0.0000
    55 H55     -3.8878  -4.8350  -7.0463   H         1 RES1   0.0000
    56 C56      0.0580  -5.0904  -3.9710   C.ar      1 RES1   0.0000
    57 H57      0.5813  -5.3997  -3.0723   H         1 RES1   0.0000
    58 C58     -1.0682  -5.6397  -6.0103   C.ar      1 RES1   0.0000
    59 H59     -1.4269  -6.3899  -6.7072   H         1 RES1   0.0000
    60 C60     -0.8176  -3.3559  -5.3704   C.ar      1 RES1   0.0000
    61 H61     -0.9760  -2.2992  -5.5585   H         1 RES1   0.0000
    62 C62     -0.1505  -3.7524  -4.2236   C.ar      1 RES1   0.0000
    63 H63      0.2089  -3.0066  -3.5224   H         1 RES1   0.0000
    64 C64     -0.4003  -6.0342  -4.8635   C.ar      1 RES1   0.0000
    65 H65     -0.2377  -7.0889  -4.6678   H         1 RES1   0.0000
@<TRIPOS>BOND
     1     1     5   ar
     2     1     6   ar
     3     1     2    1
     4     3     8   ar
     5     3     9   ar
     6     3     4    1
     7     5     9   ar
     8     5    11    1
     9     6     8   ar
    10     6     7    1
    11     8    12    1
    12     9    10    1
    13    11    20    2
    14    11    23    1
    15    13    14    1
    16    13    23   am
    17    13    24    1
    18    14    31    1
    19    14    34    1
    20    14    15    1
    21    16    24    1
    22    16    17    1
    23    16    18    1
    24    16    19    1
    25    20    21    1
    26    20    24    1
    27    21    40   ar
    28    21    45   ar
    29    22    23    2
    30    25    34    1
    31    25    37    1
    32    25    26    1
    33    25    27    1
    34    28    31    1
    35    28    37    1
    36    28    29    1
    37    28    30    1
    38    31    32    1
    39    31    33    1
    40    34    35    1
    41    34    36    1
    42    37    38    1
    43    37    39    1
    44    40    47   ar
    45    41    45   ar
    46    41    48   ar
    47    41    42    1
    48    43    47    1
    49    43    49    1
    50    43    44    1
    51    45    46    1
    52    47    48   ar
    53    49    51    1
    54    49    52    1
    55    49    50    1
    56    51    58   ar
    57    51    60   ar
    58    52    53    1
    59    52    54    1
    60    52    55    1
    61    56    62   ar
    62    56    64   ar
    63    56    57    1
    64    58    64   ar
    65    58    59    1
    66    60    62   ar
    67    60    61    1
    68    62    63    1
    69    64    65    1
@<TRIPOS>SUBSTRUCTURE
     1 RES1        1 GROUP             0 ****  ****    0  
@<TRIPOS>MOLECULE
LIGAND_00138
    65    69     1     0     0
SMALL
USER_CHARGES
****
Generated from the CSD

@<TRIPOS>ATOM
     1 C1      -0.0623  -3.9116 -15.8986   C.ar      1 RES1   0.0000
     2 H2      -0.8416  -4.2914 -16.5504   H         1 RES1   0.0000
     3 C3       1.9021  -2.9024 -14.2389   C.ar      1 RES1   0.0000
     4 H4       2.6695  -2.4956 -13.5887   H         1 RES1   0.0000
     5 C5       0.2510  -4.6025 -14.7318   C.ar      1 RES1   0.0000
     6 C6       0.5965  -2.7446 -16.2430   C.ar      1 RES1   0.0000
     7 H7       0.3520  -2.2182 -17.1595   H         1 RES1   0.0000
     8 C8       1.5615  -2.2694 -15.4002   C.ar      1 RES1   0.0000
     9 C9       1.2456  -4.0750 -13.9131   C.ar      1 RES1   0.0000
    10 H10      1.5190  -4.5919 -13.0003   H         1 RES1   0.0000
    11 C11     -0.4566  -5.8657 -14.3436   C.2       1 RES1   0.0000
    12 F12      2.2098  -1.1192 -15.7299   F         1 RES1   0.0000
    13 N13     -1.2977  -7.9184 -14.1949   N.am      1 RES1   0.0000
    14 C14     -1.6472  -9.3662 -14.3900   C.3       1 RES1   0.0000
    15 H15     -1.1918  -9.7013 -15.3208   H         1 RES1   0.0000
    16 C16     -2.2897  -7.7957 -11.8758   C.3       1 RES1   0.0000
    17 H17     -2.9095  -7.0734 -11.3484   H         1 RES1   0.0000
    18 H18     -2.9157  -8.6421 -12.1505   H         1 RES1   0.0000
    19 H19     -1.5224  -8.1493 -11.1904   H         1 RES1   0.0000
    20 C20     -1.1594  -5.9688 -13.1688   C.2       1 RES1   0.0000
    21 C21     -1.4160  -4.9157 -12.1531   C.ar      1 RES1   0.0000
    22 O22     -0.0893  -7.5273 -16.0603   O.2       1 RES1   0.0000
    23 C23     -0.5538  -7.1279 -15.0005   C.2       1 RES1   0.0000
    24 N24     -1.6838  -7.1905 -13.0624   N.pl3     1 RES1   0.0000
    25 C25     -1.4023 -11.6854 -13.4474   C.3       1 RES1   0.0000
    26 H26     -1.0244 -12.2553 -12.5999   H         1 RES1   0.0000
    27 H27     -0.9317 -12.0410 -14.3629   H         1 RES1   0.0000
    28 C28     -3.4757 -11.0669 -14.6601   C.3       1 RES1   0.0000
    29 H29     -3.0679 -11.4165 -15.6074   H         1 RES1   0.0000
    30 H30     -4.5566 -11.1996 -14.6592   H         1 RES1   0.0000
    31 C31     -3.1539  -9.5896 -14.4927   C.3       1 RES1   0.0000
    32 H32     -3.5373  -9.0419 -15.3524   H         1 RES1   0.0000
    33 H33     -3.6311  -9.2216 -13.5856   H         1 RES1   0.0000
    34 C34     -1.0789 -10.2144 -13.2516   C.3       1 RES1   0.0000
    35 H35     -1.5095  -9.8785 -12.3094   H         1 RES1   0.0000
    36 H36      0.0025 -10.0896 -13.2215   H         1 RES1   0.0000
    37 N37     -2.8833 -11.8657 -13.5472   N.4       1 RES1   1.0000
    38 H38     -3.3077 -11.5730 -12.6729   H         1 RES1   0.0000
    39 H39     -3.0827 -12.8479 -13.7079   H         1 RES1   0.0000
    40 N40     -1.4457  -5.3100 -10.8704   N.ar      1 RES1   0.0000
    41 C41     -1.8713  -2.7071 -11.4663   C.ar      1 RES1   0.0000
    42 H42     -2.0353  -1.6631 -11.7123   H         1 RES1   0.0000
    43 N43     -1.7536  -4.7680  -8.6637   N.pl3     1 RES1   0.0000
    44 H44     -1.8978  -4.0558  -7.9480   H         1 RES1   0.0000
    45 C45     -1.6289  -3.5895 -12.4997   C.ar      1 RES1   0.0000
    46 H46     -1.6086  -3.2613 -13.5337   H         1 RES1   0.0000
    47 C47     -1.7025  -4.3713  -9.9453   C.ar      1 RES1   0.0000
    48 N48     -1.9163  -3.0679 -10.1773   N.ar      1 RES1   0.0000
    49 C49     -1.5526  -6.1487  -8.2244   C.3       1 RES1   0.0000
    50 H50     -1.8354  -6.8247  -9.0462   H         1 RES1   0.0000
    51 C51     -2.3861  -6.4947  -7.0062   C.ar      1 RES1   0.0000
    52 C52     -0.0671  -6.3304  -7.9358   C.3       1 RES1   0.0000
    53 H53      0.1455  -7.3540  -7.6346   H         1 RES1   0.0000
    54 H54      0.5294  -6.1060  -8.8176   H         1 RES1   0.0000
    55 H55      0.2522  -5.6684  -7.1336   H         1 RES1   0.0000
    56 C56     -3.9161  -7.1160  -4.7627   C.ar      1 RES1   0.0000
    57 H57     -4.5127  -7.3579  -3.8893   H         1 RES1   0.0000
    58 C58     -2.6575  -5.5334  -6.0433   C.ar      1 RES1   0.0000
    59 H59     -2.2686  -4.5279  -6.1655   H         1 RES1   0.0000
    60 C60     -2.8926  -7.7744  -6.8248   C.ar      1 RES1   0.0000
    61 H61     -2.6921  -8.5433  -7.5635   H         1 RES1   0.0000
    62 C62     -3.6533  -8.0816  -5.7093   C.ar      1 RES1   0.0000
    63 H63     -4.0432  -9.0859  -5.5810   H         1 RES1   0.0000
    64 C64     -3.4188  -5.8422  -4.9290   C.ar      1 RES1   0.0000
    65 H65     -3.6240  -5.0792  -4.1855   H         1 RES1   0.0000
@<TRIPOS>BOND
     1     1     5   ar
     2     1     6   ar
     3     1     2    1
     4     3     8   ar
     5     3     9   ar
     6     3     4    1
     7     5     9   ar
     8     5    11    1
     9     6     8   ar
    10     6     7    1
    11     8    12    1
    12     9    10    1
    13    11    20    2
    14    11    23    1
    15    13    14    1
    16    13    23   am
    17    13    24    1
    18    14    31    1
    19    14    34    1
    20    14    15    1
    21    16    24    1
    22    16    17    1
    23    16    18    1
    24    16    19    1
    25    20    21    1
    26    20    24    1
    27    21    40   ar
    28    21    45   ar
    29    22    23    2
    30    25    34    1
    31    25    37    1
    32    25    26    1
    33    25    27    1
    34    28    31    1
    35    28    37    1
    36    28    29    1
    37    28    30    1
    38    31    32    1
    39    31    33    1
    40    34    35    1
    41    34    36    1
    42    37    38    1
    43    37    39    1
    44    40    47   ar
    45    41    45   ar
    46    41    48   ar
    47    41    42    1
    48    43    47    1
    49    43    49    1
    50    43    44    1
    51    45    46    1
    52    47    48   ar
    53    49    51    1
    54    49    52    1
    55    49    50    1
    56    51    58   ar
    57    51    60   ar
    58    52    53    1
    59    52    54    1
    60    52    55    1
    61    56    62   ar
    62    56    64   ar
    63    56    57    1
    64    58    64   ar
    65    58    59    1
    66    60    62   ar
    67    60    61    1
    68    62    63    1
    69    64    65    1
@<TRIPOS>SUBSTRUCTURE
     1 RES1        1 GROUP             0 ****  ****    0  
@<TRIPOS>MOLECULE
LIGAND_00139
    65    69     1     0     0
SMALL
USER_CHARGES
****
Generated from the CSD

@<TRIPOS>ATOM
     1 C1       0.5896  -4.0772 -15.6065   C.ar      1 RES1   0.0000
     2 H2      -0.0948  -4.4241 -16.3731   H         1 RES1   0.0000
     3 C3       2.3154  -3.1507 -13.6585   C.ar      1 RES1   0.0000
     4 H4       2.9901  -2.7762 -12.8957   H         1 RES1   0.0000
     5 C5       0.6606  -4.7569 -14.3942   C.ar      1 RES1   0.0000
     6 C6       1.3710  -2.9623 -15.8535   C.ar      1 RES1   0.0000
     7 H7       1.3156  -2.4447 -16.8053   H         1 RES1   0.0000
     8 C8       2.2128  -2.5270 -14.8691   C.ar      1 RES1   0.0000
     9 C9       1.5390  -4.2718 -13.4294   C.ar      1 RES1   0.0000
    10 H10      1.6240  -4.7817 -12.4765   H         1 RES1   0.0000
    11 C11     -0.1822  -5.9637 -14.1107   C.2       1 RES1   0.0000
    12 F12      2.9803  -1.4278 -15.1031   F         1 RES1   0.0000
    13 N13     -1.2781  -7.9106 -14.2037   N.am      1 RES1   0.0000
    14 C14     -1.6151  -9.3612 -14.4006   C.3       1 RES1   0.0000
    15 H15     -1.0256  -9.7345 -15.2367   H         1 RES1   0.0000
    16 C16     -3.0714  -7.4050 -12.6117   C.3       1 RES1   0.0000
    17 H17     -3.3330  -6.6718 -11.8516   H         1 RES1   0.0000
    18 H18     -3.7581  -7.2859 -13.4473   H         1 RES1   0.0000
    19 H19     -3.2179  -8.3975 -12.1909   H         1 RES1   0.0000
    20 C20     -1.0688  -6.0097 -13.0848   C.2       1 RES1   0.0000
    21 C21     -1.4087  -4.9383 -12.1137   C.ar      1 RES1   0.0000
    22 O22      0.3510  -7.6211 -15.8112   O.2       1 RES1   0.0000
    23 C23     -0.2747  -7.1992 -14.8475   C.2       1 RES1   0.0000
    24 N24     -1.6860  -7.2278 -13.0481   N.3       1 RES1   0.0000
    25 C25     -1.5555 -11.6466 -13.3516   C.3       1 RES1   0.0000
    26 H26     -1.3228 -12.1887 -12.4362   H         1 RES1   0.0000
    27 H27     -0.9537 -12.0400 -14.1695   H         1 RES1   0.0000
    28 C28     -3.4053 -11.0528 -14.8936   C.3       1 RES1   0.0000
    29 H29     -2.8604 -11.4407 -15.7530   H         1 RES1   0.0000
    30 H30     -4.4750 -11.1747 -15.0568   H         1 RES1   0.0000
    31 C31     -3.0908  -9.5735 -14.7294   C.3       1 RES1   0.0000
    32 H32     -3.3273  -9.0540 -15.6568   H         1 RES1   0.0000
    33 H33     -3.6976  -9.1679 -13.9212   H         1 RES1   0.0000
    34 C34     -1.2440 -10.1726 -13.1588   C.3       1 RES1   0.0000
    35 H35     -1.8107  -9.7983 -12.3075   H         1 RES1   0.0000
    36 H36     -0.1786 -10.0573 -12.9646   H         1 RES1   0.0000
    37 N37     -3.0055 -11.8160 -13.6749   N.4       1 RES1   1.0000
    38 H38     -3.5562 -11.4873 -12.8883   H         1 RES1   0.0000
    39 H39     -3.1925 -12.8014 -13.8306   H         1 RES1   0.0000
    40 N40     -1.3961  -3.6787 -12.5773   N.ar      1 RES1   0.0000
    41 C41     -1.9984  -4.1284  -9.9798   C.ar      1 RES1   0.0000
    42 H42     -2.2450  -4.3168  -8.9401   H         1 RES1   0.0000
    43 N43     -1.6434  -1.4376 -12.1592   N.pl3     1 RES1   0.0000
    44 H44     -1.3636  -1.2872 -13.1285   H         1 RES1   0.0000
    45 C45     -1.7132  -5.2105 -10.7880   C.ar      1 RES1   0.0000
    46 H46     -1.7244  -6.2251 -10.4035   H         1 RES1   0.0000
    47 C47     -1.6764  -2.6996 -11.7022   C.ar      1 RES1   0.0000
    48 N48     -1.9865  -2.8592 -10.4073   N.ar      1 RES1   0.0000
    49 C49     -1.9223  -0.2605 -11.3369   C.3       1 RES1   0.0000
    50 H50     -1.5833  -0.4605 -10.3086   H         1 RES1   0.0000
    51 C51     -3.3986   0.0824 -11.3005   C.ar      1 RES1   0.0000
    52 C52     -1.1088   0.8995 -11.8991   C.3       1 RES1   0.0000
    53 H53     -1.2540   1.7978 -11.3028   H         1 RES1   0.0000
    54 H54     -0.0469   0.6627 -11.9020   H         1 RES1   0.0000
    55 H55     -1.4094   1.1197 -12.9213   H         1 RES1   0.0000
    56 C56     -6.1130   0.7064 -11.2477   C.ar      1 RES1   0.0000
    57 H57     -7.1704   0.9488 -11.2267   H         1 RES1   0.0000
    58 C58     -4.2162  -0.2124 -12.3820   C.ar      1 RES1   0.0000
    59 H59     -3.7930  -0.6912 -13.2588   H         1 RES1   0.0000
    60 C60     -3.9639   0.6978 -10.1920   C.ar      1 RES1   0.0000
    61 H61     -3.3440   0.9396  -9.3351   H         1 RES1   0.0000
    62 C62     -5.3134   1.0071 -10.1671   C.ar      1 RES1   0.0000
    63 H63     -5.7416   1.4875  -9.2936   H         1 RES1   0.0000
    64 C64     -5.5654   0.0969 -12.3550   C.ar      1 RES1   0.0000
    65 H65     -6.1924  -0.1415 -13.2077   H         1 RES1   0.0000
@<TRIPOS>BOND
     1     1     5   ar
     2     1     6   ar
     3     1     2    1
     4     3     8   ar
     5     3     9   ar
     6     3     4    1
     7     5     9   ar
     8     5    11    1
     9     6     8   ar
    10     6     7    1
    11     8    12    1
    12     9    10    1
    13    11    20    2
    14    11    23    1
    15    13    14    1
    16    13    23   am
    17    13    24    1
    18    14    31    1
    19    14    34    1
    20    14    15    1
    21    16    24    1
    22    16    17    1
    23    16    18    1
    24    16    19    1
    25    20    21    1
    26    20    24    1
    27    21    40   ar
    28    21    45   ar
    29    22    23    2
    30    25    34    1
    31    25    37    1
    32    25    26    1
    33    25    27    1
    34    28    31    1
    35    28    37    1
    36    28    29    1
    37    28    30    1
    38    31    32    1
    39    31    33    1
    40    34    35    1
    41    34    36    1
    42    37    38    1
    43    37    39    1
    44    40    47   ar
    45    41    45   ar
    46    41    48   ar
    47    41    42    1
    48    43    47    1
    49    43    49    1
    50    43    44    1
    51    45    46    1
    52    47    48   ar
    53    49    51    1
    54    49    52    1
    55    49    50    1
    56    51    58   ar
    57    51    60   ar
    58    52    53    1
    59    52    54    1
    60    52    55    1
    61    56    62   ar
    62    56    64   ar
    63    56    57    1
    64    58    64   ar
    65    58    59    1
    66    60    62   ar
    67    60    61    1
    68    62    63    1
    69    64    65    1
@<TRIPOS>SUBSTRUCTURE
     1 RES1        1 GROUP             0 ****  ****    0  
@<TRIPOS>MOLECULE
LIGAND_00140
    65    69     1     0     0
SMALL
USER_CHARGES
****
Generated from the CSD

@<TRIPOS>ATOM
     1 C1       1.8363  -5.0308 -12.2162   C.ar      1 RES1   0.0000
     2 H2       2.4918  -5.5879 -12.8768   H         1 RES1   0.0000
     3 C3       0.1881  -3.5725 -10.5463   C.ar      1 RES1   0.0000
     4 H4      -0.4529  -2.9906  -9.8924   H         1 RES1   0.0000
     5 C5       0.4604  -5.2241 -12.2950   C.ar      1 RES1   0.0000
     6 C6       2.3872  -4.1369 -11.3151   C.ar      1 RES1   0.0000
     7 H7       3.4617  -4.0002 -11.2544   H         1 RES1   0.0000
     8 C8       1.5456  -3.4286 -10.5045   C.ar      1 RES1   0.0000
     9 C9      -0.3489  -4.4790 -11.4419   C.ar      1 RES1   0.0000
    10 H10     -1.4245  -4.6103 -11.4724   H         1 RES1   0.0000
    11 C11     -0.1512  -6.1860 -13.2685   C.2       1 RES1   0.0000
    12 F12      2.0801  -2.5436  -9.6196   F         1 RES1   0.0000
    13 N13     -1.2406  -7.9410 -14.1570   N.am      1 RES1   0.0000
    14 C14     -1.5106  -9.4109 -14.3092   C.3       1 RES1   0.0000
    15 H15     -1.2165  -9.7060 -15.3154   H         1 RES1   0.0000
    16 C16     -1.3876  -7.1276 -16.4280   C.3       1 RES1   0.0000
    17 H17     -0.7384  -7.0978 -17.3006   H         1 RES1   0.0000
    18 H18     -2.0590  -7.9772 -16.5346   H         1 RES1   0.0000
    19 H19     -1.9875  -6.2200 -16.4198   H         1 RES1   0.0000
    20 C20     -0.0279  -6.1202 -14.6126   C.2       1 RES1   0.0000
    21 C21      0.6269  -5.0726 -15.4374   C.ar      1 RES1   0.0000
    22 O22     -1.1910  -7.8605 -11.8611   O.2       1 RES1   0.0000
    23 C23     -0.9103  -7.3619 -12.9432   C.2       1 RES1   0.0000
    24 N24     -0.6005  -7.2381 -15.1994   N.3       1 RES1   0.0000
    25 C25     -0.9166 -11.7076 -13.4731   C.3       1 RES1   0.0000
    26 H26     -0.3425 -12.2497 -12.7231   H         1 RES1   0.0000
    27 H27     -0.6032 -12.0221 -14.4675   H         1 RES1   0.0000
    28 C28     -3.2234 -11.2473 -14.2597   C.3       1 RES1   0.0000
    29 H29     -2.9780 -11.5605 -15.2734   H         1 RES1   0.0000
    30 H30     -4.2713 -11.4635 -14.0567   H         1 RES1   0.0000
    31 C31     -2.9881  -9.7501 -14.1290   C.3       1 RES1   0.0000
    32 H32     -3.5682  -9.2306 -14.8902   H         1 RES1   0.0000
    33 H33     -3.3105  -9.4238 -13.1413   H         1 RES1   0.0000
    34 C34     -0.6738 -10.2168 -13.3148   C.3       1 RES1   0.0000
    35 H35     -0.9415  -9.9189 -12.3021   H         1 RES1   0.0000
    36 H36      0.3810 -10.0085 -13.4876   H         1 RES1   0.0000
    37 N37     -2.3716 -12.0020 -13.2941   N.4       1 RES1   1.0000
    38 H38     -2.6429 -11.7464 -12.3500   H         1 RES1   0.0000
    39 H39     -2.5232 -12.9961 -13.4322   H         1 RES1   0.0000
    40 N40      1.9307  -5.2446 -15.7060   N.ar      1 RES1   0.0000
    41 C41      0.6624  -3.0499 -16.6475   C.ar      1 RES1   0.0000
    42 H42      0.1456  -2.1746 -17.0270   H         1 RES1   0.0000
    43 N43      3.8487  -4.4508 -16.6805   N.pl3     1 RES1   0.0000
    44 H44      4.3226  -5.2495 -16.2588   H         1 RES1   0.0000
    45 C45     -0.0596  -3.9606 -15.9027   C.ar      1 RES1   0.0000
    46 H46     -1.1130  -3.8119 -15.6895   H         1 RES1   0.0000
    47 C47      2.5396  -4.2909 -16.4291   C.ar      1 RES1   0.0000
    48 N48      1.9652  -3.1860 -16.9266   N.ar      1 RES1   0.0000
    49 C49      4.6519  -3.5170 -17.4694   C.3       1 RES1   0.0000
    50 H50      4.6353  -2.5332 -16.9753   H         1 RES1   0.0000
    51 C51      4.1284  -3.3559 -18.8831   C.ar      1 RES1   0.0000
    52 C52      6.0862  -4.0325 -17.4766   C.3       1 RES1   0.0000
    53 H53      6.7373  -3.3552 -18.0254   H         1 RES1   0.0000
    54 H54      6.4702  -4.1243 -16.4628   H         1 RES1   0.0000
    55 H55      6.1404  -5.0110 -17.9491   H         1 RES1   0.0000
    56 C56      3.1611  -3.0745 -21.4804   C.ar      1 RES1   0.0000
    57 H57      2.7838  -2.9645 -22.4916   H         1 RES1   0.0000
    58 C58      3.4709  -4.4026 -19.5134   C.ar      1 RES1   0.0000
    59 H59      3.3324  -5.3420 -18.9884   H         1 RES1   0.0000
    60 C60      4.2954  -2.1656 -19.5776   C.ar      1 RES1   0.0000
    61 H61      4.8080  -1.3338 -19.1060   H         1 RES1   0.0000
    62 C62      3.8138  -2.0271 -20.8684   C.ar      1 RES1   0.0000
    63 H63      3.9510  -1.0907 -21.3987   H         1 RES1   0.0000
    64 C64      2.9893  -4.2620 -20.8038   C.ar      1 RES1   0.0000
    65 H65      2.4757  -5.0890 -21.2827   H         1 RES1   0.0000
@<TRIPOS>BOND
     1     1     5   ar
     2     1     6   ar
     3     1     2    1
     4     3     8   ar
     5     3     9   ar
     6     3     4    1
     7     5     9   ar
     8     5    11    1
     9     6     8   ar
    10     6     7    1
    11     8    12    1
    12     9    10    1
    13    11    20    2
    14    11    23    1
    15    13    14    1
    16    13    23   am
    17    13    24    1
    18    14    31    1
    19    14    34    1
    20    14    15    1
    21    16    24    1
    22    16    17    1
    23    16    18    1
    24    16    19    1
    25    20    21    1
    26    20    24    1
    27    21    40   ar
    28    21    45   ar
    29    22    23    2
    30    25    34    1
    31    25    37    1
    32    25    26    1
    33    25    27    1
    34    28    31    1
    35    28    37    1
    36    28    29    1
    37    28    30    1
    38    31    32    1
    39    31    33    1
    40    34    35    1
    41    34    36    1
    42    37    38    1
    43    37    39    1
    44    40    47   ar
    45    41    45   ar
    46    41    48   ar
    47    41    42    1
    48    43    47    1
    49    43    49    1
    50    43    44    1
    51    45    46    1
    52    47    48   ar
    53    49    51    1
    54    49    52    1
    55    49    50    1
    56    51    58   ar
    57    51    60   ar
    58    52    53    1
    59    52    54    1
    60    52    55    1
    61    56    62   ar
    62    56    64   ar
    63    56    57    1
    64    58    64   ar
    65    58    59    1
    66    60    62   ar
    67    60    61    1
    68    62    63    1
    69    64    65    1
@<TRIPOS>SUBSTRUCTURE
     1 RES1        1 GROUP             0 ****  ****    0  
@<TRIPOS>MOLECULE
LIGAND_00141
    65    69     1     0     0
SMALL
USER_CHARGES
****
Generated from the CSD

@<TRIPOS>ATOM
     1 C1      -0.1681  -3.7535 -12.4299   C.ar      1 RES1   0.0000
     2 H2       0.8209  -4.1111 -12.6954   H         1 RES1   0.0000
     3 C3      -2.6769  -2.8015 -11.7730   C.ar      1 RES1   0.0000
     4 H4      -3.6591  -2.4173 -11.5182   H         1 RES1   0.0000
     5 C5      -1.2840  -4.5137 -12.7670   C.ar      1 RES1   0.0000
     6 C6      -0.2936  -2.5456 -11.7668   C.ar      1 RES1   0.0000
     7 H7       0.5828  -1.9646 -11.4996   H         1 RES1   0.0000
     8 C8      -1.5480  -2.1004 -11.4579   C.ar      1 RES1   0.0000
     9 C9      -2.5369  -4.0137 -12.4236   C.ar      1 RES1   0.0000
    10 H10     -3.4266  -4.5840 -12.6653   H         1 RES1   0.0000
    11 C11     -1.1641  -5.8221 -13.4886   C.2       1 RES1   0.0000
    12 F12     -1.6793  -0.9106 -10.8106   F         1 RES1   0.0000
    13 N13     -1.2419  -7.9408 -14.1578   N.am      1 RES1   0.0000
    14 C14     -1.5135  -9.4103 -14.3108   C.3       1 RES1   0.0000
    15 H15     -1.1084  -9.7308 -15.2695   H         1 RES1   0.0000
    16 C16     -0.3294  -7.6731 -16.4973   C.3       1 RES1   0.0000
    17 H17      0.2746  -6.9578 -17.0518   H         1 RES1   0.0000
    18 H18      0.2133  -8.6153 -16.4574   H         1 RES1   0.0000
    19 H19     -1.2532  -7.8366 -17.0482   H         1 RES1   0.0000
    20 C20     -0.5870  -5.9122 -14.7311   C.2       1 RES1   0.0000
    21 C21      0.0604  -4.8376 -15.5265   C.ar      1 RES1   0.0000
    22 O22     -2.1491  -7.5595 -12.1270   O.2       1 RES1   0.0000
    23 C23     -1.5812  -7.1368 -13.1256   C.2       1 RES1   0.0000
    24 N24     -0.6120  -7.1784 -15.1495   N.pl3     1 RES1   0.0000
    25 C25     -1.0545 -11.6953 -13.3648   C.3       1 RES1   0.0000
    26 H26     -0.5797 -12.2279 -12.5421   H         1 RES1   0.0000
    27 H27     -0.6318 -12.0351 -14.3092   H         1 RES1   0.0000
    28 C28     -3.2469 -11.2245 -14.4249   C.3       1 RES1   0.0000
    29 H29     -2.8895 -11.5626 -15.3964   H         1 RES1   0.0000
    30 H30     -4.3143 -11.4235 -14.3415   H         1 RES1   0.0000
    31 C31     -3.0067  -9.7277 -14.2978   C.3       1 RES1   0.0000
    32 H32     -3.4865  -9.2179 -15.1320   H         1 RES1   0.0000
    33 H33     -3.4374  -9.3762 -13.3614   H         1 RES1   0.0000
    34 C34     -0.8102 -10.2044 -13.2093   C.3       1 RES1   0.0000
    35 H35     -1.1899  -9.8814 -12.2411   H         1 RES1   0.0000
    36 H36      0.2605 -10.0126 -13.2618   H         1 RES1   0.0000
    37 N37     -2.5246 -11.9682 -13.3513   N.4       1 RES1   1.0000
    38 H38     -2.9004 -11.6889 -12.4507   H         1 RES1   0.0000
    39 H39     -2.6734 -12.9631 -13.4861   H         1 RES1   0.0000
    40 N40     -0.7059  -3.7852 -15.8536   N.ar      1 RES1   0.0000
    41 C41      1.8690  -3.8559 -16.6763   C.ar      1 RES1   0.0000
    42 H42      2.9047  -3.8883 -16.9980   H         1 RES1   0.0000
    43 N43     -0.9099  -1.7764 -16.9406   N.pl3     1 RES1   0.0000
    44 H44     -0.4742  -1.0081 -17.4509   H         1 RES1   0.0000
    45 C45      1.3859  -4.9110 -15.9288   C.ar      1 RES1   0.0000
    46 H46      2.0127  -5.7582 -15.6708   H         1 RES1   0.0000
    47 C47     -0.1387  -2.8196 -16.5946   C.ar      1 RES1   0.0000
    48 N48      1.1302  -2.7954 -17.0275   N.ar      1 RES1   0.0000
    49 C49     -2.3205  -1.6437 -16.5771   C.3       1 RES1   0.0000
    50 H50     -2.4014  -1.6266 -15.4792   H         1 RES1   0.0000
    51 C51     -3.1636  -2.7875 -17.1055   C.ar      1 RES1   0.0000
    52 C52     -2.8144  -0.3082 -17.1211   C.3       1 RES1   0.0000
    53 H53     -3.8549  -0.1420 -16.8504   H         1 RES1   0.0000
    54 H54     -2.2249   0.5146 -16.7222   H         1 RES1   0.0000
    55 H55     -2.7390  -0.2839 -18.2062   H         1 RES1   0.0000
    56 C56     -4.7030  -4.8910 -18.0885   C.ar      1 RES1   0.0000
    57 H57     -5.3023  -5.7106 -18.4708   H         1 RES1   0.0000
    58 C58     -2.8127  -3.4355 -18.2812   C.ar      1 RES1   0.0000
    59 H59     -1.9284  -3.1187 -18.8242   H         1 RES1   0.0000
    60 C60     -4.3011  -3.2099 -16.4314   C.ar      1 RES1   0.0000
    61 H61     -4.5964  -2.7173 -15.5109   H         1 RES1   0.0000
    62 C62     -5.0651  -4.2558 -16.9210   C.ar      1 RES1   0.0000
    63 H63     -5.9513  -4.5756 -16.3830   H         1 RES1   0.0000
    64 C64     -3.5774  -4.4816 -18.7688   C.ar      1 RES1   0.0000
    65 H65     -3.2892  -4.9796 -19.6885   H         1 RES1   0.0000
@<TRIPOS>BOND
     1     1     5   ar
     2     1     6   ar
     3     1     2    1
     4     3     8   ar
     5     3     9   ar
     6     3     4    1
     7     5     9   ar
     8     5    11    1
     9     6     8   ar
    10     6     7    1
    11     8    12    1
    12     9    10    1
    13    11    20    2
    14    11    23    1
    15    13    14    1
    16    13    23   am
    17    13    24    1
    18    14    31    1
    19    14    34    1
    20    14    15    1
    21    16    24    1
    22    16    17    1
    23    16    18    1
    24    16    19    1
    25    20    21    1
    26    20    24    1
    27    21    40   ar
    28    21    45   ar
    29    22    23    2
    30    25    34    1
    31    25    37    1
    32    25    26    1
    33    25    27    1
    34    28    31    1
    35    28    37    1
    36    28    29    1
    37    28    30    1
    38    31    32    1
    39    31    33    1
    40    34    35    1
    41    34    36    1
    42    37    38    1
    43    37    39    1
    44    40    47   ar
    45    41    45   ar
    46    41    48   ar
    47    41    42    1
    48    43    47    1
    49    43    49    1
    50    43    44    1
    51    45    46    1
    52    47    48   ar
    53    49    51    1
    54    49    52    1
    55    49    50    1
    56    51    58   ar
    57    51    60   ar
    58    52    53    1
    59    52    54    1
    60    52    55    1
    61    56    62   ar
    62    56    64   ar
    63    56    57    1
    64    58    64   ar
    65    58    59    1
    66    60    62   ar
    67    60    61    1
    68    62    63    1
    69    64    65    1
@<TRIPOS>SUBSTRUCTURE
     1 RES1        1 GROUP             0 ****  ****    0  
@<TRIPOS>MOLECULE
LIGAND_00142
    65    69     1     0     0
SMALL
USER_CHARGES
****
Generated from the CSD

@<TRIPOS>ATOM
     1 C1      -0.1696  -3.7528 -12.4302   C.ar      1 RES1   0.0000
     2 H2       0.8196  -4.1102 -12.6953   H         1 RES1   0.0000
     3 C3      -2.6789  -2.8014 -11.7745   C.ar      1 RES1   0.0000
     4 H4      -3.6613  -2.4174 -11.5202   H         1 RES1   0.0000
     5 C5      -1.2852  -4.5134 -12.7676   C.ar      1 RES1   0.0000
     6 C6      -0.2957  -2.5448 -11.7674   C.ar      1 RES1   0.0000
     7 H7       0.5804  -1.9635 -11.5001   H         1 RES1   0.0000
     8 C8      -1.5504  -2.0999 -11.4592   C.ar      1 RES1   0.0000
     9 C9      -2.5384  -4.0137 -12.4248   C.ar      1 RES1   0.0000
    10 H10     -3.4278  -4.5843 -12.6667   H         1 RES1   0.0000
    11 C11     -1.1646  -5.8220 -13.4889   C.2       1 RES1   0.0000
    12 F12     -1.6822  -0.9100 -10.8122   F         1 RES1   0.0000
    13 N13     -1.2415  -7.9409 -14.1576   N.am      1 RES1   0.0000
    14 C14     -1.5127  -9.4105 -14.3104   C.3       1 RES1   0.0000
    15 H15     -1.1069  -9.7311 -15.2688   H         1 RES1   0.0000
    16 C16     -0.3282  -7.6734 -16.4968   C.3       1 RES1   0.0000
    17 H17      0.2609  -6.9504 -17.0572   H         1 RES1   0.0000
    18 H18      0.2301  -8.6065 -16.4565   H         1 RES1   0.0000
    19 H19     -1.2522  -7.8541 -17.0420   H         1 RES1   0.0000
    20 C20     -0.5870  -5.9122 -14.7311   C.2       1 RES1   0.0000
    21 C21      0.0604  -4.8376 -15.5265   C.ar      1 RES1   0.0000
    22 O22     -2.1496  -7.5594 -12.1272   O.2       1 RES1   0.0000
    23 C23     -1.5814  -7.1367 -13.1257   C.2       1 RES1   0.0000
    24 N24     -0.6114  -7.1785 -15.1492   N.pl3     1 RES1   0.0000
    25 C25     -1.0536 -11.6951 -13.3635   C.3       1 RES1   0.0000
    26 H26     -0.5790 -12.2273 -12.5404   H         1 RES1   0.0000
    27 H27     -0.6302 -12.0350 -14.3076   H         1 RES1   0.0000
    28 C28     -3.2455 -11.2252 -14.4249   C.3       1 RES1   0.0000
    29 H29     -2.8875 -11.5634 -15.3961   H         1 RES1   0.0000
    30 H30     -4.3129 -11.4245 -14.3419   H         1 RES1   0.0000
    31 C31     -3.0058  -9.7283 -14.2980   C.3       1 RES1   0.0000
    32 H32     -3.4853  -9.2188 -15.1326   H         1 RES1   0.0000
    33 H33     -3.4371  -9.3766 -13.3619   H         1 RES1   0.0000
    34 C34     -0.8097 -10.2041 -13.2083   C.3       1 RES1   0.0000
    35 H35     -1.1900  -9.8810 -12.2404   H         1 RES1   0.0000
    36 H36      0.2609 -10.0120 -13.2602   H         1 RES1   0.0000
    37 N37     -2.5235 -11.9684 -13.3507   N.4       1 RES1   1.0000
    38 H38     -2.8999 -11.6890 -12.4504   H         1 RES1   0.0000
    39 H39     -2.6720 -12.9634 -13.4853   H         1 RES1   0.0000
    40 N40     -0.7059  -3.7852 -15.8536   N.ar      1 RES1   0.0000
    41 C41      1.8690  -3.8559 -16.6763   C.ar      1 RES1   0.0000
    42 H42      2.9047  -3.8883 -16.9980   H         1 RES1   0.0000
    43 N43     -0.9099  -1.7764 -16.9406   N.pl3     1 RES1   0.0000
    44 H44     -1.8952  -1.8023 -16.6783   H         1 RES1   0.0000
    45 C45      1.3859  -4.9110 -15.9288   C.ar      1 RES1   0.0000
    46 H46      2.0127  -5.7582 -15.6708   H         1 RES1   0.0000
    47 C47     -0.1387  -2.8196 -16.5946   C.ar      1 RES1   0.0000
    48 N48      1.1302  -2.7954 -17.0275   N.ar      1 RES1   0.0000
    49 C49     -0.4402  -0.6345 -17.7248   C.3       1 RES1   0.0000
    50 H50     -0.0985  -0.9976 -18.7065   H         1 RES1   0.0000
    51 C51      0.7072   0.0947 -17.0538   C.ar      1 RES1   0.0000
    52 C52     -1.6262   0.2988 -17.9385   C.3       1 RES1   0.0000
    53 H53     -1.3399   1.1542 -18.5468   H         1 RES1   0.0000
    54 H54     -2.4402  -0.2181 -18.4425   H         1 RES1   0.0000
    55 H55     -1.9991   0.6703 -16.9863   H         1 RES1   0.0000
    56 C56      2.8099   1.4304 -15.8068   C.ar      1 RES1   0.0000
    57 H57      3.6293   1.9500 -15.3214   H         1 RES1   0.0000
    58 C58      0.8128   0.1181 -15.6705   C.ar      1 RES1   0.0000
    59 H59      0.0672  -0.3894 -15.0675   H         1 RES1   0.0000
    60 C60      1.6722   0.7544 -17.8023   C.ar      1 RES1   0.0000
    61 H61      1.6096   0.7514 -18.8855   H         1 RES1   0.0000
    62 C62      2.7171   1.4176 -17.1812   C.ar      1 RES1   0.0000
    63 H63      3.4645   1.9283 -17.7791   H         1 RES1   0.0000
    64 C64      1.8586   0.7811 -15.0512   C.ar      1 RES1   0.0000
    65 H65      1.9288   0.7890 -13.9686   H         1 RES1   0.0000
@<TRIPOS>BOND
     1     1     5   ar
     2     1     6   ar
     3     1     2    1
     4     3     8   ar
     5     3     9   ar
     6     3     4    1
     7     5     9   ar
     8     5    11    1
     9     6     8   ar
    10     6     7    1
    11     8    12    1
    12     9    10    1
    13    11    20    2
    14    11    23    1
    15    13    14    1
    16    13    23   am
    17    13    24    1
    18    14    31    1
    19    14    34    1
    20    14    15    1
    21    16    24    1
    22    16    17    1
    23    16    18    1
    24    16    19    1
    25    20    21    1
    26    20    24    1
    27    21    40   ar
    28    21    45   ar
    29    22    23    2
    30    25    34    1
    31    25    37    1
    32    25    26    1
    33    25    27    1
    34    28    31    1
    35    28    37    1
    36    28    29    1
    37    28    30    1
    38    31    32    1
    39    31    33    1
    40    34    35    1
    41    34    36    1
    42    37    38    1
    43    37    39    1
    44    40    47   ar
    45    41    45   ar
    46    41    48   ar
    47    41    42    1
    48    43    47    1
    49    43    49    1
    50    43    44    1
    51    45    46    1
    52    47    48   ar
    53    49    51    1
    54    49    52    1
    55    49    50    1
    56    51    58   ar
    57    51    60   ar
    58    52    53    1
    59    52    54    1
    60    52    55    1
    61    56    62   ar
    62    56    64   ar
    63    56    57    1
    64    58    64   ar
    65    58    59    1
    66    60    62   ar
    67    60    61    1
    68    62    63    1
    69    64    65    1
@<TRIPOS>SUBSTRUCTURE
     1 RES1        1 GROUP             0 ****  ****    0  
@<TRIPOS>MOLECULE
LIGAND_00143
    65    69     1     0     0
SMALL
USER_CHARGES
****
Generated from the CSD

@<TRIPOS>ATOM
     1 C1      -0.6994  -4.2982 -11.5265   C.ar      1 RES1   0.0000
     2 H2      -0.1323  -5.0965 -11.0599   H         1 RES1   0.0000
     3 C3      -2.1079  -2.2360 -12.7076   C.ar      1 RES1   0.0000
     4 H4      -2.6530  -1.4188 -13.1683   H         1 RES1   0.0000
     5 C5      -1.2881  -4.5128 -12.7691   C.ar      1 RES1   0.0000
     6 C6      -0.8173  -3.0836 -10.8742   C.ar      1 RES1   0.0000
     7 H7      -0.3629  -2.9290  -9.9013   H         1 RES1   0.0000
     8 C8      -1.5180  -2.0824 -11.4854   C.ar      1 RES1   0.0000
     9 C9      -1.9941  -3.4590 -13.3427   C.ar      1 RES1   0.0000
    10 H10     -2.4708  -3.5947 -14.3068   H         1 RES1   0.0000
    11 C11     -1.1659  -5.8217 -13.4895   C.2       1 RES1   0.0000
    12 F12     -1.6334  -0.8834 -10.8522   F         1 RES1   0.0000
    13 N13     -1.2406  -7.9410 -14.1570   N.am      1 RES1   0.0000
    14 C14     -1.5106  -9.4109 -14.3092   C.3       1 RES1   0.0000
    15 H15     -1.1035  -9.7318 -15.2670   H         1 RES1   0.0000
    16 C16     -0.3252  -7.6743 -16.4955   C.3       1 RES1   0.0000
    17 H17      0.2636  -6.9510 -17.0559   H         1 RES1   0.0000
    18 H18      0.2340  -8.6067 -16.4541   H         1 RES1   0.0000
    19 H19     -1.2486  -7.8563 -17.0413   H         1 RES1   0.0000
    20 C20     -0.5870  -5.9122 -14.7311   C.2       1 RES1   0.0000
    21 C21      0.0604  -4.8376 -15.5265   C.ar      1 RES1   0.0000
    22 O22     -2.1510  -7.5590 -12.1278   O.2       1 RES1   0.0000
    23 C23     -1.5821  -7.1365 -13.1259   C.2       1 RES1   0.0000
    24 N24     -0.6101  -7.1788 -15.1485   N.pl3     1 RES1   0.0000
    25 C25     -1.0509 -11.6946 -13.3605   C.3       1 RES1   0.0000
    26 H26     -0.5769 -12.2260 -12.5365   H         1 RES1   0.0000
    27 H27     -0.6263 -12.0348 -14.3038   H         1 RES1   0.0000
    28 C28     -3.2420 -11.2269 -14.4245   C.3       1 RES1   0.0000
    29 H29     -2.8826 -11.5654 -15.3952   H         1 RES1   0.0000
    30 H30     -4.3093 -11.4269 -14.3427   H         1 RES1   0.0000
    31 C31     -3.0035  -9.7297 -14.2983   C.3       1 RES1   0.0000
    32 H32     -3.4824  -9.2211 -15.1337   H         1 RES1   0.0000
    33 H33     -3.4360  -9.3778 -13.3629   H         1 RES1   0.0000
    34 C34     -0.8083 -10.2033 -13.2059   C.3       1 RES1   0.0000
    35 H35     -1.1898  -9.8799 -12.2386   H         1 RES1   0.0000
    36 H36      0.2623 -10.0106 -13.2567   H         1 RES1   0.0000
    37 N37     -2.5207 -11.9690 -13.3491   N.4       1 RES1   1.0000
    38 H38     -2.8983 -11.6892 -12.4494   H         1 RES1   0.0000
    39 H39     -2.6683 -12.9641 -13.4833   H         1 RES1   0.0000
    40 N40      1.1204  -4.2311 -14.9697   N.ar      1 RES1   0.0000
    41 C41      0.2729  -3.4391 -17.4122   C.ar      1 RES1   0.0000
    42 H42     -0.0691  -3.1305 -18.3946   H         1 RES1   0.0000
    43 N43      2.7453  -2.6186 -15.1035   N.pl3     1 RES1   0.0000
    44 H44      3.0056  -2.8864 -14.1544   H         1 RES1   0.0000
    45 C45     -0.4048  -4.4607 -16.7778   C.ar      1 RES1   0.0000
    46 H46     -1.2618  -4.9437 -17.2355   H         1 RES1   0.0000
    47 C47      1.6980  -3.2405 -15.6683   C.ar      1 RES1   0.0000
    48 N48      1.3280  -2.8070 -16.8822   N.ar      1 RES1   0.0000
    49 C49      3.4971  -1.5371 -15.7399   C.3       1 RES1   0.0000
    50 H50      2.8120  -0.6967 -15.9310   H         1 RES1   0.0000
    51 C51      4.1188  -1.9620 -17.0557   C.ar      1 RES1   0.0000
    52 C52      4.5672  -1.0772 -14.7567   C.3       1 RES1   0.0000
    53 H53      5.1386  -0.2477 -15.1680   H         1 RES1   0.0000
    54 H54      4.1188  -0.7489 -13.8214   H         1 RES1   0.0000
    55 H55      5.2587  -1.8873 -14.5348   H         1 RES1   0.0000
    56 C56      5.2623  -2.7571 -19.4683   C.ar      1 RES1   0.0000
    57 H57      5.7070  -3.0668 -20.4082   H         1 RES1   0.0000
    58 C58      4.5006  -3.2801 -17.2603   C.ar      1 RES1   0.0000
    59 H59      4.3523  -4.0096 -16.4710   H         1 RES1   0.0000
    60 C60      4.3221  -1.0476 -18.0802   C.ar      1 RES1   0.0000
    61 H61      4.0332  -0.0109 -17.9427   H         1 RES1   0.0000
    62 C62      4.8903  -1.4444 -19.2790   C.ar      1 RES1   0.0000
    63 H63      5.0425  -0.7188 -20.0711   H         1 RES1   0.0000
    64 C64      5.0678  -3.6752 -18.4599   C.ar      1 RES1   0.0000
    65 H65      5.3596  -4.7099 -18.6056   H         1 RES1   0.0000
@<TRIPOS>BOND
     1     1     5   ar
     2     1     6   ar
     3     1     2    1
     4     3     8   ar
     5     3     9   ar
     6     3     4    1
     7     5     9   ar
     8     5    11    1
     9     6     8   ar
    10     6     7    1
    11     8    12    1
    12     9    10    1
    13    11    20    2
    14    11    23    1
    15    13    14    1
    16    13    23   am
    17    13    24    1
    18    14    31    1
    19    14    34    1
    20    14    15    1
    21    16    24    1
    22    16    17    1
    23    16    18    1
    24    16    19    1
    25    20    21    1
    26    20    24    1
    27    21    40   ar
    28    21    45   ar
    29    22    23    2
    30    25    34    1
    31    25    37    1
    32    25    26    1
    33    25    27    1
    34    28    31    1
    35    28    37    1
    36    28    29    1
    37    28    30    1
    38    31    32    1
    39    31    33    1
    40    34    35    1
    41    34    36    1
    42    37    38    1
    43    37    39    1
    44    40    47   ar
    45    41    45   ar
    46    41    48   ar
    47    41    42    1
    48    43    47    1
    49    43    49    1
    50    43    44    1
    51    45    46    1
    52    47    48   ar
    53    49    51    1
    54    49    52    1
    55    49    50    1
    56    51    58   ar
    57    51    60   ar
    58    52    53    1
    59    52    54    1
    60    52    55    1
    61    56    62   ar
    62    56    64   ar
    63    56    57    1
    64    58    64   ar
    65    58    59    1
    66    60    62   ar
    67    60    61    1
    68    62    63    1
    69    64    65    1
@<TRIPOS>SUBSTRUCTURE
     1 RES1        1 GROUP             0 ****  ****    0  
@<TRIPOS>MOLECULE
LIGAND_00144
    65    69     1     0     0
SMALL
USER_CHARGES
****
Generated from the CSD

@<TRIPOS>ATOM
     1 C1      -0.2660  -3.7380 -12.4036   C.ar      1 RES1   0.0000
     2 H2       0.7371  -4.1021 -12.5979   H         1 RES1   0.0000
     3 C3      -2.8092  -2.7698 -11.9278   C.ar      1 RES1   0.0000
     4 H4      -3.8047  -2.3793 -11.7441   H         1 RES1   0.0000
     5 C5      -1.3599  -4.4977 -12.8072   C.ar      1 RES1   0.0000
     6 C6      -0.4307  -2.5225 -11.7633   C.ar      1 RES1   0.0000
     7 H7       0.4282  -1.9418 -11.4438   H         1 RES1   0.0000
     8 C8      -1.7011  -2.0694 -11.5447   C.ar      1 RES1   0.0000
     9 C9      -2.6310  -3.9895 -12.5546   C.ar      1 RES1   0.0000
    10 H10     -3.5048  -4.5591 -12.8497   H         1 RES1   0.0000
    11 C11     -1.1972  -5.8144 -13.5052   C.2       1 RES1   0.0000
    12 F12     -1.8706  -0.8721 -10.9204   F         1 RES1   0.0000
    13 N13     -1.2184  -7.9441 -14.1431   N.am      1 RES1   0.0000
    14 C14     -1.4587  -9.4206 -14.2800   C.3       1 RES1   0.0000
    15 H15     -1.0232  -9.7477 -15.2230   H         1 RES1   0.0000
    16 C16     -0.2516  -7.6943 -16.4627   C.3       1 RES1   0.0000
    17 H17      0.4368  -7.0245 -16.9738   H         1 RES1   0.0000
    18 H18      0.2155  -8.6748 -16.3979   H         1 RES1   0.0000
    19 H19     -1.1499  -7.7858 -17.0696   H         1 RES1   0.0000
    20 C20     -0.5870  -5.9122 -14.7311   C.2       1 RES1   0.0000
    21 C21      0.0604  -4.8376 -15.5265   C.ar      1 RES1   0.0000
    22 O22     -2.1842  -7.5495 -12.1420   O.2       1 RES1   0.0000
    23 C23     -1.5989  -7.1311 -13.1323   C.2       1 RES1   0.0000
    24 N24     -0.5777  -7.1848 -15.1302   N.pl3     1 RES1   0.0000
    25 C25     -0.9817 -11.6819 -13.2872   C.3       1 RES1   0.0000
    26 H26     -0.5183 -12.1929 -12.4445   H         1 RES1   0.0000
    27 H27     -0.5286 -12.0278 -14.2152   H         1 RES1   0.0000
    28 C28     -3.1545 -11.2688 -14.4098   C.3       1 RES1   0.0000
    29 H29     -2.7661 -11.6147 -15.3665   H         1 RES1   0.0000
    30 H30     -4.2198 -11.4868 -14.3504   H         1 RES1   0.0000
    31 C31     -2.9456  -9.7660 -14.2999   C.3       1 RES1   0.0000
    32 H32     -3.4132  -9.2781 -15.1538   H         1 RES1   0.0000
    33 H33     -3.4066  -9.4086 -13.3803   H         1 RES1   0.0000
    34 C34     -0.7692 -10.1844 -13.1488   C.3       1 RES1   0.0000
    35 H35     -1.1795  -9.8542 -12.1957   H         1 RES1   0.0000
    36 H36      0.2987  -9.9732 -13.1771   H         1 RES1   0.0000
    37 N37     -2.4462 -11.9824 -13.3067   N.4       1 RES1   1.0000
    38 H38     -2.8502 -11.6968 -12.4205   H         1 RES1   0.0000
    39 H39     -2.5731 -12.9819 -13.4298   H         1 RES1   0.0000
    40 N40      1.1204  -4.2311 -14.9697   N.ar      1 RES1   0.0000
    41 C41      0.2729  -3.4391 -17.4122   C.ar      1 RES1   0.0000
    42 H42     -0.0691  -3.1305 -18.3946   H         1 RES1   0.0000
    43 N43      2.7453  -2.6186 -15.1035   N.pl3     1 RES1   0.0000
    44 H44      3.0056  -2.8864 -14.1544   H         1 RES1   0.0000
    45 C45     -0.4048  -4.4607 -16.7778   C.ar      1 RES1   0.0000
    46 H46     -1.2618  -4.9437 -17.2355   H         1 RES1   0.0000
    47 C47      1.6980  -3.2405 -15.6683   C.ar      1 RES1   0.0000
    48 N48      1.3280  -2.8070 -16.8822   N.ar      1 RES1   0.0000
    49 C49      3.4971  -1.5372 -15.7399   C.3       1 RES1   0.0000
    50 H50      2.8121  -0.6967 -15.9311   H         1 RES1   0.0000
    51 C51      4.1189  -1.9621 -17.0557   C.ar      1 RES1   0.0000
    52 C52      4.5672  -1.0772 -14.7567   C.3       1 RES1   0.0000
    53 H53      5.1386  -0.2477 -15.1680   H         1 RES1   0.0000
    54 H54      4.1188  -0.7488 -13.8214   H         1 RES1   0.0000
    55 H55      5.2587  -1.8873 -14.5347   H         1 RES1   0.0000
    56 C56      5.2625  -2.7573 -19.4682   C.ar      1 RES1   0.0000
    57 H57      5.7072  -3.0671 -20.4081   H         1 RES1   0.0000
    58 C58      4.5006  -3.2802 -17.2602   C.ar      1 RES1   0.0000
    59 H59      4.3523  -4.0097 -16.4709   H         1 RES1   0.0000
    60 C60      4.3222  -1.0478 -18.0802   C.ar      1 RES1   0.0000
    61 H61      4.0334  -0.0110 -17.9427   H         1 RES1   0.0000
    62 C62      4.8905  -1.4446 -19.2789   C.ar      1 RES1   0.0000
    63 H63      5.0427  -0.7191 -20.0711   H         1 RES1   0.0000
    64 C64      5.0679  -3.6753 -18.4598   C.ar      1 RES1   0.0000
    65 H65      5.3597  -4.7101 -18.6054   H         1 RES1   0.0000
@<TRIPOS>BOND
     1     1     5   ar
     2     1     6   ar
     3     1     2    1
     4     3     8   ar
     5     3     9   ar
     6     3     4    1
     7     5     9   ar
     8     5    11    1
     9     6     8   ar
    10     6     7    1
    11     8    12    1
    12     9    10    1
    13    11    20    2
    14    11    23    1
    15    13    14    1
    16    13    23   am
    17    13    24    1
    18    14    31    1
    19    14    34    1
    20    14    15    1
    21    16    24    1
    22    16    17    1
    23    16    18    1
    24    16    19    1
    25    20    21    1
    26    20    24    1
    27    21    40   ar
    28    21    45   ar
    29    22    23    2
    30    25    34    1
    31    25    37    1
    32    25    26    1
    33    25    27    1
    34    28    31    1
    35    28    37    1
    36    28    29    1
    37    28    30    1
    38    31    32    1
    39    31    33    1
    40    34    35    1
    41    34    36    1
    42    37    38    1
    43    37    39    1
    44    40    47   ar
    45    41    45   ar
    46    41    48   ar
    47    41    42    1
    48    43    47    1
    49    43    49    1
    50    43    44    1
    51    45    46    1
    52    47    48   ar
    53    49    51    1
    54    49    52    1
    55    49    50    1
    56    51    58   ar
    57    51    60   ar
    58    52    53    1
    59    52    54    1
    60    52    55    1
    61    56    62   ar
    62    56    64   ar
    63    56    57    1
    64    58    64   ar
    65    58    59    1
    66    60    62   ar
    67    60    61    1
    68    62    63    1
    69    64    65    1
@<TRIPOS>SUBSTRUCTURE
     1 RES1        1 GROUP             0 ****  ****    0  
@<TRIPOS>MOLECULE
LIGAND_00145
    65    69     1     0     0
SMALL
USER_CHARGES
****
Generated from the CSD

@<TRIPOS>ATOM
     1 C1      -0.5579  -4.3298 -11.5227   C.ar      1 RES1   0.0000
     2 H2       0.0342  -5.1335 -11.0983   H         1 RES1   0.0000
     3 C3      -2.0299  -2.2541 -12.5981   C.ar      1 RES1   0.0000
     4 H4      -2.5998  -1.4317 -13.0176   H         1 RES1   0.0000
     5 C5      -1.2154  -4.5297 -12.7328   C.ar      1 RES1   0.0000
     6 C6      -0.6387  -3.1233 -10.8502   C.ar      1 RES1   0.0000
     7 H7      -0.1305  -2.9801  -9.9025   H         1 RES1   0.0000
     8 C8      -1.3724  -2.1150 -11.4091   C.ar      1 RES1   0.0000
     9 C9      -1.9522  -3.4694 -13.2532   C.ar      1 RES1   0.0000
    10 H10     -2.4823  -3.5937 -14.1906   H         1 RES1   0.0000
    11 C11     -1.1342  -5.8298 -13.4747   C.2       1 RES1   0.0000
    12 F12     -1.4518  -0.9238 -10.7561   F         1 RES1   0.0000
    13 N13     -1.2631  -7.9374 -14.1705   N.am      1 RES1   0.0000
    14 C14     -1.5631  -9.3999 -14.3371   C.3       1 RES1   0.0000
    15 H15     -1.1845  -9.7139 -15.3087   H         1 RES1   0.0000
    16 C16     -0.3995  -7.6524 -16.5264   C.3       1 RES1   0.0000
    17 H17      0.3119  -7.0096 -17.0408   H         1 RES1   0.0000
    18 H18      0.0050  -8.6624 -16.5130   H         1 RES1   0.0000
    19 H19     -1.3233  -7.6644 -17.1008   H         1 RES1   0.0000
    20 C20     -0.5870  -5.9122 -14.7311   C.2       1 RES1   0.0000
    21 C21      0.0604  -4.8376 -15.5265   C.ar      1 RES1   0.0000
    22 O22     -2.1175  -7.5693 -12.1145   O.2       1 RES1   0.0000
    23 C23     -1.5652  -7.1422 -13.1199   C.2       1 RES1   0.0000
    24 N24     -0.6430  -7.1719 -15.1659   N.pl3     1 RES1   0.0000
    25 C25     -1.1227 -11.7051 -13.4321   C.3       1 RES1   0.0000
    26 H26     -0.6392 -12.2567 -12.6272   H         1 RES1   0.0000
    27 H27     -0.7266 -12.0388 -14.3900   H         1 RES1   0.0000
    28 C28     -3.3294 -11.1829 -14.4371   C.3       1 RES1   0.0000
    29 H29     -2.9990 -11.5136 -15.4207   H         1 RES1   0.0000
    30 H30     -4.3979 -11.3651 -14.3329   H         1 RES1   0.0000
    31 C31     -3.0609  -9.6923 -14.2954   C.3       1 RES1   0.0000
    32 H32     -3.5500  -9.1631 -15.1119   H         1 RES1   0.0000
    33 H33     -3.4650  -9.3464 -13.3451   H         1 RES1   0.0000
    34 C34     -0.8496 -10.2207 -13.2621   C.3       1 RES1   0.0000
    35 H35     -1.2025  -9.9047 -12.2815   H         1 RES1   0.0000
    36 H36      0.2228 -10.0462 -13.3355   H         1 RES1   0.0000
    37 N37     -2.5966 -11.9534 -13.3897   N.4       1 RES1   1.0000
    38 H38     -2.9478 -11.6802 -12.4775   H         1 RES1   0.0000
    39 H39     -2.7653 -12.9437 -13.5346   H         1 RES1   0.0000
    40 N40     -0.7059  -3.7852 -15.8536   N.ar      1 RES1   0.0000
    41 C41      1.8690  -3.8559 -16.6763   C.ar      1 RES1   0.0000
    42 H42      2.9047  -3.8883 -16.9980   H         1 RES1   0.0000
    43 N43     -0.9099  -1.7764 -16.9406   N.pl3     1 RES1   0.0000
    44 H44     -0.4743  -1.0082 -17.4510   H         1 RES1   0.0000
    45 C45      1.3859  -4.9110 -15.9288   C.ar      1 RES1   0.0000
    46 H46      2.0127  -5.7582 -15.6708   H         1 RES1   0.0000
    47 C47     -0.1387  -2.8196 -16.5946   C.ar      1 RES1   0.0000
    48 N48      1.1302  -2.7954 -17.0275   N.ar      1 RES1   0.0000
    49 C49     -2.3204  -1.6435 -16.5769   C.3       1 RES1   0.0000
    50 H50     -2.4011  -1.6261 -15.4790   H         1 RES1   0.0000
    51 C51     -3.1636  -2.7876 -17.1048   C.ar      1 RES1   0.0000
    52 C52     -2.8144  -0.3083 -17.1212   C.3       1 RES1   0.0000
    53 H53     -3.8549  -0.1419 -16.8503   H         1 RES1   0.0000
    54 H54     -2.2248   0.5147 -16.7226   H         1 RES1   0.0000
    55 H55     -2.7393  -0.2843 -18.2063   H         1 RES1   0.0000
    56 C56     -4.7033  -4.8912 -18.0868   C.ar      1 RES1   0.0000
    57 H57     -5.3026  -5.7110 -18.4688   H         1 RES1   0.0000
    58 C58     -2.8130  -3.4358 -18.2804   C.ar      1 RES1   0.0000
    59 H59     -1.9289  -3.1191 -18.8238   H         1 RES1   0.0000
    60 C60     -4.3009  -3.2098 -16.4302   C.ar      1 RES1   0.0000
    61 H61     -4.5960  -2.7170 -15.5098   H         1 RES1   0.0000
    62 C62     -5.0651  -4.2559 -16.9194   C.ar      1 RES1   0.0000
    63 H63     -5.9511  -4.5756 -16.3811   H         1 RES1   0.0000
    64 C64     -3.5778  -4.4820 -18.7676   C.ar      1 RES1   0.0000
    65 H65     -3.2899  -4.9802 -19.6873   H         1 RES1   0.0000
@<TRIPOS>BOND
     1     1     5   ar
     2     1     6   ar
     3     1     2    1
     4     3     8   ar
     5     3     9   ar
     6     3     4    1
     7     5     9   ar
     8     5    11    1
     9     6     8   ar
    10     6     7    1
    11     8    12    1
    12     9    10    1
    13    11    20    2
    14    11    23    1
    15    13    14    1
    16    13    23   am
    17    13    24    1
    18    14    31    1
    19    14    34    1
    20    14    15    1
    21    16    24    1
    22    16    17    1
    23    16    18    1
    24    16    19    1
    25    20    21    1
    26    20    24    1
    27    21    40   ar
    28    21    45   ar
    29    22    23    2
    30    25    34    1
    31    25    37    1
    32    25    26    1
    33    25    27    1
    34    28    31    1
    35    28    37    1
    36    28    29    1
    37    28    30    1
    38    31    32    1
    39    31    33    1
    40    34    35    1
    41    34    36    1
    42    37    38    1
    43    37    39    1
    44    40    47   ar
    45    41    45   ar
    46    41    48   ar
    47    41    42    1
    48    43    47    1
    49    43    49    1
    50    43    44    1
    51    45    46    1
    52    47    48   ar
    53    49    51    1
    54    49    52    1
    55    49    50    1
    56    51    58   ar
    57    51    60   ar
    58    52    53    1
    59    52    54    1
    60    52    55    1
    61    56    62   ar
    62    56    64   ar
    63    56    57    1
    64    58    64   ar
    65    58    59    1
    66    60    62   ar
    67    60    61    1
    68    62    63    1
    69    64    65    1
@<TRIPOS>SUBSTRUCTURE
     1 RES1        1 GROUP             0 ****  ****    0  
@<TRIPOS>MOLECULE
LIGAND_00146
    65    69     1     0     0
SMALL
USER_CHARGES
****
Generated from the CSD

@<TRIPOS>ATOM
     1 C1      -0.5577  -4.3301 -11.5225   C.ar      1 RES1   0.0000
     2 H2       0.0342  -5.1339 -11.0981   H         1 RES1   0.0000
     3 C3      -2.0292  -2.2541 -12.5979   C.ar      1 RES1   0.0000
     4 H4      -2.5989  -1.4315 -13.0174   H         1 RES1   0.0000
     5 C5      -1.2152  -4.5298 -12.7327   C.ar      1 RES1   0.0000
     6 C6      -0.6384  -3.1236 -10.8499   C.ar      1 RES1   0.0000
     7 H7      -0.1302  -2.9806  -9.9022   H         1 RES1   0.0000
     8 C8      -1.3718  -2.1151 -11.4089   C.ar      1 RES1   0.0000
     9 C9      -1.9517  -3.4693 -13.2531   C.ar      1 RES1   0.0000
    10 H10     -2.4817  -3.5934 -14.1906   H         1 RES1   0.0000
    11 C11     -1.1341  -5.8298 -13.4746   C.2       1 RES1   0.0000
    12 F12     -1.4510  -0.9239 -10.7557   F         1 RES1   0.0000
    13 N13     -1.2632  -7.9374 -14.1705   N.am      1 RES1   0.0000
    14 C14     -1.5633  -9.3998 -14.3372   C.3       1 RES1   0.0000
    15 H15     -1.1854  -9.7136 -15.3091   H         1 RES1   0.0000
    16 C16     -0.3998  -7.6523 -16.5265   C.3       1 RES1   0.0000
    17 H17      0.3116  -7.0095 -17.0410   H         1 RES1   0.0000
    18 H18      0.0048  -8.6623 -16.5132   H         1 RES1   0.0000
    19 H19     -1.3237  -7.6643 -17.1008   H         1 RES1   0.0000
    20 C20     -0.5870  -5.9122 -14.7311   C.2       1 RES1   0.0000
    21 C21      0.0604  -4.8376 -15.5265   C.ar      1 RES1   0.0000
    22 O22     -2.1174  -7.5693 -12.1144   O.2       1 RES1   0.0000
    23 C23     -1.5652  -7.1423 -13.1199   C.2       1 RES1   0.0000
    24 N24     -0.6431  -7.1718 -15.1659   N.pl3     1 RES1   0.0000
    25 C25     -1.1223 -11.7052 -13.4329   C.3       1 RES1   0.0000
    26 H26     -0.6383 -12.2570 -12.6284   H         1 RES1   0.0000
    27 H27     -0.7268 -12.0388 -14.3911   H         1 RES1   0.0000
    28 C28     -3.3296 -11.1829 -14.4364   C.3       1 RES1   0.0000
    29 H29     -3.0000 -11.5133 -15.4203   H         1 RES1   0.0000
    30 H30     -4.3981 -11.3651 -14.3314   H         1 RES1   0.0000
    31 C31     -3.0611  -9.6922 -14.2945   C.3       1 RES1   0.0000
    32 H32     -3.5507  -9.1629 -15.1106   H         1 RES1   0.0000
    33 H33     -3.4645  -9.3466 -13.3439   H         1 RES1   0.0000
    34 C34     -0.8491 -10.2208 -13.2628   C.3       1 RES1   0.0000
    35 H35     -1.2013  -9.9050 -12.2819   H         1 RES1   0.0000
    36 H36      0.2232 -10.0464 -13.3370   H         1 RES1   0.0000
    37 N37     -2.5961 -11.9535 -13.3896   N.4       1 RES1   1.0000
    38 H38     -2.9468 -11.6804 -12.4771   H         1 RES1   0.0000
    39 H39     -2.7650 -12.9438 -13.5345   H         1 RES1   0.0000
    40 N40     -0.7059  -3.7852 -15.8536   N.ar      1 RES1   0.0000
    41 C41      1.8690  -3.8559 -16.6763   C.ar      1 RES1   0.0000
    42 H42      2.9047  -3.8883 -16.9980   H         1 RES1   0.0000
    43 N43     -0.9099  -1.7764 -16.9406   N.pl3     1 RES1   0.0000
    44 H44     -1.8952  -1.8023 -16.6784   H         1 RES1   0.0000
    45 C45      1.3859  -4.9110 -15.9288   C.ar      1 RES1   0.0000
    46 H46      2.0127  -5.7582 -15.6708   H         1 RES1   0.0000
    47 C47     -0.1387  -2.8196 -16.5946   C.ar      1 RES1   0.0000
    48 N48      1.1302  -2.7954 -17.0275   N.ar      1 RES1   0.0000
    49 C49     -0.4402  -0.6344 -17.7248   C.3       1 RES1   0.0000
    50 H50     -0.0983  -0.9976 -18.7064   H         1 RES1   0.0000
    51 C51      0.7070   0.0949 -17.0536   C.ar      1 RES1   0.0000
    52 C52     -1.6263   0.2987 -17.9387   C.3       1 RES1   0.0000
    53 H53     -1.3399   1.1541 -18.5470   H         1 RES1   0.0000
    54 H54     -2.4401  -0.2183 -18.4428   H         1 RES1   0.0000
    55 H55     -1.9994   0.6702 -16.9866   H         1 RES1   0.0000
    56 C56      2.8094   1.4308 -15.8063   C.ar      1 RES1   0.0000
    57 H57      3.6287   1.9505 -15.3208   H         1 RES1   0.0000
    58 C58      0.8124   0.1184 -15.6703   C.ar      1 RES1   0.0000
    59 H59      0.0667  -0.3892 -15.0674   H         1 RES1   0.0000
    60 C60      1.6722   0.7546 -17.8020   C.ar      1 RES1   0.0000
    61 H61      1.6097   0.7515 -18.8852   H         1 RES1   0.0000
    62 C62      2.7168   1.4179 -17.1807   C.ar      1 RES1   0.0000
    63 H63      3.4643   1.9286 -17.7785   H         1 RES1   0.0000
    64 C64      1.8580   0.7815 -15.0508   C.ar      1 RES1   0.0000
    65 H65      1.9279   0.7895 -13.9682   H         1 RES1   0.0000
@<TRIPOS>BOND
     1     1     5   ar
     2     1     6   ar
     3     1     2    1
     4     3     8   ar
     5     3     9   ar
     6     3     4    1
     7     5     9   ar
     8     5    11    1
     9     6     8   ar
    10     6     7    1
    11     8    12    1
    12     9    10    1
    13    11    20    2
    14    11    23    1
    15    13    14    1
    16    13    23   am
    17    13    24    1
    18    14    31    1
    19    14    34    1
    20    14    15    1
    21    16    24    1
    22    16    17    1
    23    16    18    1
    24    16    19    1
    25    20    21    1
    26    20    24    1
    27    21    40   ar
    28    21    45   ar
    29    22    23    2
    30    25    34    1
    31    25    37    1
    32    25    26    1
    33    25    27    1
    34    28    31    1
    35    28    37    1
    36    28    29    1
    37    28    30    1
    38    31    32    1
    39    31    33    1
    40    34    35    1
    41    34    36    1
    42    37    38    1
    43    37    39    1
    44    40    47   ar
    45    41    45   ar
    46    41    48   ar
    47    41    42    1
    48    43    47    1
    49    43    49    1
    50    43    44    1
    51    45    46    1
    52    47    48   ar
    53    49    51    1
    54    49    52    1
    55    49    50    1
    56    51    58   ar
    57    51    60   ar
    58    52    53    1
    59    52    54    1
    60    52    55    1
    61    56    62   ar
    62    56    64   ar
    63    56    57    1
    64    58    64   ar
    65    58    59    1
    66    60    62   ar
    67    60    61    1
    68    62    63    1
    69    64    65    1
@<TRIPOS>SUBSTRUCTURE
     1 RES1        1 GROUP             0 ****  ****    0  
@<TRIPOS>MOLECULE
LIGAND_00147
    65    69     1     0     0
SMALL
USER_CHARGES
****
Generated from the CSD

@<TRIPOS>ATOM
     1 C1       1.8363  -5.0308 -12.2162   C.ar      1 RES1   0.0000
     2 H2       2.4918  -5.5879 -12.8768   H         1 RES1   0.0000
     3 C3       0.1881  -3.5725 -10.5463   C.ar      1 RES1   0.0000
     4 H4      -0.4529  -2.9906  -9.8924   H         1 RES1   0.0000
     5 C5       0.4604  -5.2241 -12.2950   C.ar      1 RES1   0.0000
     6 C6       2.3872  -4.1369 -11.3151   C.ar      1 RES1   0.0000
     7 H7       3.4617  -4.0002 -11.2544   H         1 RES1   0.0000
     8 C8       1.5456  -3.4286 -10.5045   C.ar      1 RES1   0.0000
     9 C9      -0.3489  -4.4790 -11.4419   C.ar      1 RES1   0.0000
    10 H10     -1.4245  -4.6103 -11.4724   H         1 RES1   0.0000
    11 C11     -0.1512  -6.1860 -13.2685   C.2       1 RES1   0.0000
    12 F12      2.0801  -2.5436  -9.6196   F         1 RES1   0.0000
    13 N13     -1.2406  -7.9410 -14.1570   N.am      1 RES1   0.0000
    14 C14     -1.5106  -9.4109 -14.3092   C.3       1 RES1   0.0000
    15 H15     -1.2165  -9.7060 -15.3154   H         1 RES1   0.0000
    16 C16     -1.3876  -7.1276 -16.4280   C.3       1 RES1   0.0000
    17 H17     -0.7384  -7.0978 -17.3006   H         1 RES1   0.0000
    18 H18     -2.0590  -7.9772 -16.5346   H         1 RES1   0.0000
    19 H19     -1.9875  -6.2200 -16.4198   H         1 RES1   0.0000
    20 C20     -0.0279  -6.1202 -14.6126   C.2       1 RES1   0.0000
    21 C21      0.6269  -5.0726 -15.4374   C.ar      1 RES1   0.0000
    22 O22     -1.1910  -7.8605 -11.8611   O.2       1 RES1   0.0000
    23 C23     -0.9103  -7.3619 -12.9432   C.2       1 RES1   0.0000
    24 N24     -0.6005  -7.2381 -15.1994   N.3       1 RES1   0.0000
    25 C25     -0.9166 -11.7076 -13.4731   C.3       1 RES1   0.0000
    26 H26     -0.3425 -12.2497 -12.7231   H         1 RES1   0.0000
    27 H27     -0.6032 -12.0221 -14.4675   H         1 RES1   0.0000
    28 C28     -3.2234 -11.2473 -14.2597   C.3       1 RES1   0.0000
    29 H29     -2.9780 -11.5605 -15.2734   H         1 RES1   0.0000
    30 H30     -4.2713 -11.4635 -14.0567   H         1 RES1   0.0000
    31 C31     -2.9881  -9.7501 -14.1290   C.3       1 RES1   0.0000
    32 H32     -3.5682  -9.2306 -14.8902   H         1 RES1   0.0000
    33 H33     -3.3105  -9.4238 -13.1413   H         1 RES1   0.0000
    34 C34     -0.6738 -10.2168 -13.3148   C.3       1 RES1   0.0000
    35 H35     -0.9415  -9.9189 -12.3021   H         1 RES1   0.0000
    36 H36      0.3810 -10.0085 -13.4876   H         1 RES1   0.0000
    37 N37     -2.3716 -12.0020 -13.2941   N.4       1 RES1   1.0000
    38 H38     -2.6429 -11.7464 -12.3500   H         1 RES1   0.0000
    39 H39     -2.5232 -12.9961 -13.4322   H         1 RES1   0.0000
    40 N40     -0.1457  -4.0508 -15.8381   N.ar      1 RES1   0.0000
    41 C41      2.4551  -4.1135 -16.5753   C.ar      1 RES1   0.0000
    42 H42      3.5011  -4.1422 -16.8624   H         1 RES1   0.0000
    43 N43     -0.3478  -2.0993 -17.0253   N.pl3     1 RES1   0.0000
    44 H44     -1.3406  -2.1307 -16.7933   H         1 RES1   0.0000
    45 C45      1.9657  -5.1409 -15.7940   C.ar      1 RES1   0.0000
    46 H46      2.5978  -5.9636 -15.4765   H         1 RES1   0.0000
    47 C47      0.4289  -3.1110 -16.6060   C.ar      1 RES1   0.0000
    48 N48      1.7106  -3.0842 -16.9995   N.ar      1 RES1   0.0000
    49 C49      0.1279  -0.9870 -17.8474   C.3       1 RES1   0.0000
    50 H50      0.5078  -1.3895 -18.7992   H         1 RES1   0.0000
    51 C51      1.2401  -0.2060 -17.1755   C.ar      1 RES1   0.0000
    52 C52     -1.0661  -0.0869 -18.1432   C.3       1 RES1   0.0000
    53 H53     -0.7744   0.7441 -18.7820   H         1 RES1   0.0000
    54 H54     -1.8541  -0.6418 -18.6478   H         1 RES1   0.0000
    55 H55     -1.4763   0.3221 -17.2222   H         1 RES1   0.0000
    56 C56      3.2742   1.2323 -15.9288   C.ar      1 RES1   0.0000
    57 H57      4.0668   1.7918 -15.4431   H         1 RES1   0.0000
    58 C58      1.0247   0.4150 -15.9536   C.ar      1 RES1   0.0000
    59 H59      0.0523   0.3398 -15.4783   H         1 RES1   0.0000
    60 C60      2.4922  -0.0921 -17.7640   C.ar      1 RES1   0.0000
    61 H61      2.6837  -0.5676 -18.7201   H         1 RES1   0.0000
    62 C62      3.5024   0.6229 -17.1430   C.ar      1 RES1   0.0000
    63 H63      4.4762   0.7028 -17.6144   H         1 RES1   0.0000
    64 C64      2.0362   1.1288 -15.3338   C.ar      1 RES1   0.0000
    65 H65      1.8531   1.6075 -14.3775   H         1 RES1   0.0000
@<TRIPOS>BOND
     1     1     5   ar
     2     1     6   ar
     3     1     2    1
     4     3     8   ar
     5     3     9   ar
     6     3     4    1
     7     5     9   ar
     8     5    11    1
     9     6     8   ar
    10     6     7    1
    11     8    12    1
    12     9    10    1
    13    11    20    2
    14    11    23    1
    15    13    14    1
    16    13    23   am
    17    13    24    1
    18    14    31    1
    19    14    34    1
    20    14    15    1
    21    16    24    1
    22    16    17    1
    23    16    18    1
    24    16    19    1
    25    20    21    1
    26    20    24    1
    27    21    40   ar
    28    21    45   ar
    29    22    23    2
    30    25    34    1
    31    25    37    1
    32    25    26    1
    33    25    27    1
    34    28    31    1
    35    28    37    1
    36    28    29    1
    37    28    30    1
    38    31    32    1
    39    31    33    1
    40    34    35    1
    41    34    36    1
    42    37    38    1
    43    37    39    1
    44    40    47   ar
    45    41    45   ar
    46    41    48   ar
    47    41    42    1
    48    43    47    1
    49    43    49    1
    50    43    44    1
    51    45    46    1
    52    47    48   ar
    53    49    51    1
    54    49    52    1
    55    49    50    1
    56    51    58   ar
    57    51    60   ar
    58    52    53    1
    59    52    54    1
    60    52    55    1
    61    56    62   ar
    62    56    64   ar
    63    56    57    1
    64    58    64   ar
    65    58    59    1
    66    60    62   ar
    67    60    61    1
    68    62    63    1
    69    64    65    1
@<TRIPOS>SUBSTRUCTURE
     1 RES1        1 GROUP             0 ****  ****    0  
@<TRIPOS>MOLECULE
LIGAND_00148
    65    69     1     0     0
SMALL
USER_CHARGES
****
Generated from the CSD

@<TRIPOS>ATOM
     1 C1      -3.0631  -3.8287 -15.3625   C.ar      1 RES1   0.0000
     2 H2      -3.8873  -4.2451 -14.7934   H         1 RES1   0.0000
     3 C3      -0.9708  -2.7270 -16.7909   C.ar      1 RES1   0.0000
     4 H4      -0.1518  -2.2842 -17.3479   H         1 RES1   0.0000
     5 C5      -1.8408  -4.4937 -15.3832   C.ar      1 RES1   0.0000
     6 C6      -3.2486  -2.6418 -16.0491   C.ar      1 RES1   0.0000
     7 H7      -4.2080  -2.1356 -16.0349   H         1 RES1   0.0000
     8 C8      -2.1938  -2.1208 -16.7443   C.ar      1 RES1   0.0000
     9 C9      -0.8026  -3.9197 -16.1115   C.ar      1 RES1   0.0000
    10 H10      0.1605  -4.4153 -16.1542   H         1 RES1   0.0000
    11 C11     -1.6238  -5.7781 -14.6413   C.2       1 RES1   0.0000
    12 F12     -2.3673  -0.9510 -17.4174   F         1 RES1   0.0000
    13 N13     -1.2299  -7.9383 -14.1569   N.am      1 RES1   0.0000
    14 C14     -1.4876  -9.4110 -14.3030   C.3       1 RES1   0.0000
    15 H15     -1.2003  -9.7058 -15.3112   H         1 RES1   0.0000
    16 C16     -0.8696  -7.6870 -11.7804   C.3       1 RES1   0.0000
    17 H17     -1.4402  -8.4067 -11.1971   H         1 RES1   0.0000
    18 H18      0.0763  -8.1486 -12.0561   H         1 RES1   0.0000
    19 H19     -0.6564  -6.8289 -11.1465   H         1 RES1   0.0000
    20 C20     -1.7513  -5.9390 -13.3057   C.2       1 RES1   0.0000
    21 C21     -2.0254  -4.9138 -12.2663   C.ar      1 RES1   0.0000
    22 O22     -1.1898  -7.3970 -16.3897   O.2       1 RES1   0.0000
    23 C23     -1.3089  -7.0549 -15.2204   C.2       1 RES1   0.0000
    24 N24     -1.6148  -7.2774 -12.9713   N.3       1 RES1   0.0000
    25 C25     -0.8645 -11.7001 -13.4672   C.3       1 RES1   0.0000
    26 H26     -0.2783 -12.2350 -12.7214   H         1 RES1   0.0000
    27 H27     -0.5575 -12.0141 -14.4638   H         1 RES1   0.0000
    28 C28     -3.1828 -11.2631 -14.2330   C.3       1 RES1   0.0000
    29 H29     -2.9440 -11.5765 -15.2483   H         1 RES1   0.0000
    30 H30     -4.2266 -11.4885 -14.0196   H         1 RES1   0.0000
    31 C31     -2.9601  -9.7635 -14.1080   C.3       1 RES1   0.0000
    32 H32     -3.5522  -9.2512 -14.8650   H         1 RES1   0.0000
    33 H33     -3.2762  -9.4378 -13.1181   H         1 RES1   0.0000
    34 C34     -0.6340 -10.2067 -13.3147   C.3       1 RES1   0.0000
    35 H35     -0.8949  -9.9089 -12.3002   H         1 RES1   0.0000
    36 H36      0.4172  -9.9890 -13.4980   H         1 RES1   0.0000
    37 N37     -2.3149 -12.0075 -13.2737   N.4       1 RES1   1.0000
    38 H38     -2.5796 -11.7522 -12.3277   H         1 RES1   0.0000
    39 H39     -2.4586 -13.0033 -13.4082   H         1 RES1   0.0000
    40 N40     -1.5622  -3.6765 -12.5033   N.ar      1 RES1   0.0000
    41 C41     -2.8928  -4.1749 -10.2027   C.ar      1 RES1   0.0000
    42 H42     -3.4327  -4.3807  -9.2843   H         1 RES1   0.0000
    43 N43     -1.3003  -1.5147 -11.7849   N.pl3     1 RES1   0.0000
    44 H44     -0.7572  -1.3616 -12.6345   H         1 RES1   0.0000
    45 C45     -2.7132  -5.2096 -11.0985   C.ar      1 RES1   0.0000
    46 H46     -3.0900  -6.2069 -10.8971   H         1 RES1   0.0000
    47 C47     -1.7815  -2.7475 -11.5589   C.ar      1 RES1   0.0000
    48 N48     -2.4367  -2.9317 -10.4034   N.ar      1 RES1   0.0000
    49 C49     -1.4523  -0.3929 -10.8585   C.3       1 RES1   0.0000
    50 H50     -1.4476  -0.7829  -9.8289   H         1 RES1   0.0000
    51 C51     -2.7443   0.3687 -11.0802   C.ar      1 RES1   0.0000
    52 C52     -0.2455   0.5209 -11.0370   C.3       1 RES1   0.0000
    53 H53     -0.2907   1.3598 -10.3457   H         1 RES1   0.0000
    54 H54      0.6806  -0.0199 -10.8533   H         1 RES1   0.0000
    55 H55     -0.2107   0.9181 -12.0493   H         1 RES1   0.0000
    56 C56     -5.1139   1.7713 -11.5022   C.ar      1 RES1   0.0000
    57 H57     -6.0372   2.3169 -11.6666   H         1 RES1   0.0000
    58 C58     -3.0046   0.9716 -12.3024   C.ar      1 RES1   0.0000
    59 H59     -2.2763   0.8962 -13.1031   H         1 RES1   0.0000
    60 C60     -3.6909   0.4825 -10.0713   C.ar      1 RES1   0.0000
    61 H61     -3.5086   0.0210  -9.1065   H         1 RES1   0.0000
    62 C62     -4.8684   1.1797 -10.2826   C.ar      1 RES1   0.0000
    63 H63     -5.5995   1.2599  -9.4850   H         1 RES1   0.0000
    64 C64     -4.1829   1.6676 -12.5122   C.ar      1 RES1   0.0000
    65 H65     -4.3731   2.1322 -13.4740   H         1 RES1   0.0000
@<TRIPOS>BOND
     1     1     5   ar
     2     1     6   ar
     3     1     2    1
     4     3     8   ar
     5     3     9   ar
     6     3     4    1
     7     5     9   ar
     8     5    11    1
     9     6     8   ar
    10     6     7    1
    11     8    12    1
    12     9    10    1
    13    11    20    2
    14    11    23    1
    15    13    14    1
    16    13    23   am
    17    13    24    1
    18    14    31    1
    19    14    34    1
    20    14    15    1
    21    16    24    1
    22    16    17    1
    23    16    18    1
    24    16    19    1
    25    20    21    1
    26    20    24    1
    27    21    40   ar
    28    21    45   ar
    29    22    23    2
    30    25    34    1
    31    25    37    1
    32    25    26    1
    33    25    27    1
    34    28    31    1
    35    28    37    1
    36    28    29    1
    37    28    30    1
    38    31    32    1
    39    31    33    1
    40    34    35    1
    41    34    36    1
    42    37    38    1
    43    37    39    1
    44    40    47   ar
    45    41    45   ar
    46    41    48   ar
    47    41    42    1
    48    43    47    1
    49    43    49    1
    50    43    44    1
    51    45    46    1
    52    47    48   ar
    53    49    51    1
    54    49    52    1
    55    49    50    1
    56    51    58   ar
    57    51    60   ar
    58    52    53    1
    59    52    54    1
    60    52    55    1
    61    56    62   ar
    62    56    64   ar
    63    56    57    1
    64    58    64   ar
    65    58    59    1
    66    60    62   ar
    67    60    61    1
    68    62    63    1
    69    64    65    1
@<TRIPOS>SUBSTRUCTURE
     1 RES1        1 GROUP             0 ****  ****    0  
@<TRIPOS>MOLECULE
LIGAND_00149
    65    69     1     0     0
SMALL
USER_CHARGES
****
Generated from the CSD

@<TRIPOS>ATOM
     1 C1      -3.0628  -3.8285 -15.3625   C.ar      1 RES1   0.0000
     2 H2      -3.8870  -4.2449 -14.7936   H         1 RES1   0.0000
     3 C3      -0.9702  -2.7270 -16.7907   C.ar      1 RES1   0.0000
     4 H4      -0.1511  -2.2842 -17.3477   H         1 RES1   0.0000
     5 C5      -1.8405  -4.4937 -15.3832   C.ar      1 RES1   0.0000
     6 C6      -3.2480  -2.6416 -16.0492   C.ar      1 RES1   0.0000
     7 H7      -4.2074  -2.1353 -16.0350   H         1 RES1   0.0000
     8 C8      -2.1931  -2.1207 -16.7442   C.ar      1 RES1   0.0000
     9 C9      -0.8022  -3.9197 -16.1113   C.ar      1 RES1   0.0000
    10 H10      0.1609  -4.4154 -16.1540   H         1 RES1   0.0000
    11 C11     -1.6237  -5.7781 -14.6413   C.2       1 RES1   0.0000
    12 F12     -2.3665  -0.9508 -17.4174   F         1 RES1   0.0000
    13 N13     -1.2300  -7.9384 -14.1569   N.am      1 RES1   0.0000
    14 C14     -1.4878  -9.4110 -14.3031   C.3       1 RES1   0.0000
    15 H15     -1.2003  -9.7059 -15.3112   H         1 RES1   0.0000
    16 C16     -0.8699  -7.6871 -11.7804   C.3       1 RES1   0.0000
    17 H17     -1.4406  -8.4068 -11.1971   H         1 RES1   0.0000
    18 H18      0.0760  -8.1489 -12.0560   H         1 RES1   0.0000
    19 H19     -0.6566  -6.8290 -11.1464   H         1 RES1   0.0000
    20 C20     -1.7513  -5.9390 -13.3057   C.2       1 RES1   0.0000
    21 C21     -2.0254  -4.9138 -12.2663   C.ar      1 RES1   0.0000
    22 O22     -1.1896  -7.3970 -16.3897   O.2       1 RES1   0.0000
    23 C23     -1.3089  -7.0549 -15.2204   C.2       1 RES1   0.0000
    24 N24     -1.6149  -7.2775 -12.9713   N.3       1 RES1   0.0000
    25 C25     -0.8651 -11.7002 -13.4671   C.3       1 RES1   0.0000
    26 H26     -0.2792 -12.2352 -12.7212   H         1 RES1   0.0000
    27 H27     -0.5580 -12.0142 -14.4636   H         1 RES1   0.0000
    28 C28     -3.1832 -11.2629 -14.2335   C.3       1 RES1   0.0000
    29 H29     -2.9443 -11.5763 -15.2487   H         1 RES1   0.0000
    30 H30     -4.2271 -11.4882 -14.0203   H         1 RES1   0.0000
    31 C31     -2.9604  -9.7633 -14.1084   C.3       1 RES1   0.0000
    32 H32     -3.5523  -9.2510 -14.8655   H         1 RES1   0.0000
    33 H33     -3.2767  -9.4376 -13.1186   H         1 RES1   0.0000
    34 C34     -0.6346 -10.2068 -13.3146   C.3       1 RES1   0.0000
    35 H35     -0.8957  -9.9089 -12.3002   H         1 RES1   0.0000
    36 H36      0.4167  -9.9892 -13.4976   H         1 RES1   0.0000
    37 N37     -2.3156 -12.0074 -13.2740   N.4       1 RES1   1.0000
    38 H38     -2.5806 -11.7520 -12.3281   H         1 RES1   0.0000
    39 H39     -2.4594 -13.0032 -13.4084   H         1 RES1   0.0000
    40 N40     -1.5622  -3.6765 -12.5033   N.ar      1 RES1   0.0000
    41 C41     -2.8928  -4.1749 -10.2027   C.ar      1 RES1   0.0000
    42 H42     -3.4327  -4.3807  -9.2843   H         1 RES1   0.0000
    43 N43     -1.3003  -1.5147 -11.7849   N.pl3     1 RES1   0.0000
    44 H44     -1.5010  -0.7893 -11.0965   H         1 RES1   0.0000
    45 C45     -2.7132  -5.2096 -11.0985   C.ar      1 RES1   0.0000
    46 H46     -3.0900  -6.2069 -10.8971   H         1 RES1   0.0000
    47 C47     -1.7815  -2.7475 -11.5589   C.ar      1 RES1   0.0000
    48 N48     -2.4367  -2.9317 -10.4034   N.ar      1 RES1   0.0000
    49 C49     -0.5599  -1.1313 -12.9868   C.3       1 RES1   0.0000
    50 H50     -0.9429  -1.7155 -13.8379   H         1 RES1   0.0000
    51 C51      0.9284  -1.3886 -12.8554   C.ar      1 RES1   0.0000
    52 C52     -0.8352   0.3448 -13.2482   C.3       1 RES1   0.0000
    53 H53     -0.3323   0.6770 -14.1540   H         1 RES1   0.0000
    54 H54     -1.9015   0.5251 -13.3672   H         1 RES1   0.0000
    55 H55     -0.4790   0.9545 -12.4204   H         1 RES1   0.0000
    56 C56      3.6636  -1.8516 -12.6018   C.ar      1 RES1   0.0000
    57 H57      4.7288  -2.0327 -12.5027   H         1 RES1   0.0000
    58 C58      1.6644  -0.7665 -11.8573   C.ar      1 RES1   0.0000
    59 H59      1.1686  -0.0913 -11.1677   H         1 RES1   0.0000
    60 C60      1.5869  -2.2454 -13.7267   C.ar      1 RES1   0.0000
    61 H61      1.0326  -2.7419 -14.5162   H         1 RES1   0.0000
    62 C62      2.9464  -2.4749 -13.5992   C.ar      1 RES1   0.0000
    63 H63      3.4477  -3.1477 -14.2870   H         1 RES1   0.0000
    64 C64      3.0236  -0.9977 -11.7308   C.ar      1 RES1   0.0000
    65 H65      3.5853  -0.5052 -10.9441   H         1 RES1   0.0000
@<TRIPOS>BOND
     1     1     5   ar
     2     1     6   ar
     3     1     2    1
     4     3     8   ar
     5     3     9   ar
     6     3     4    1
     7     5     9   ar
     8     5    11    1
     9     6     8   ar
    10     6     7    1
    11     8    12    1
    12     9    10    1
    13    11    20    2
    14    11    23    1
    15    13    14    1
    16    13    23   am
    17    13    24    1
    18    14    31    1
    19    14    34    1
    20    14    15    1
    21    16    24    1
    22    16    17    1
    23    16    18    1
    24    16    19    1
    25    20    21    1
    26    20    24    1
    27    21    40   ar
    28    21    45   ar
    29    22    23    2
    30    25    34    1
    31    25    37    1
    32    25    26    1
    33    25    27    1
    34    28    31    1
    35    28    37    1
    36    28    29    1
    37    28    30    1
    38    31    32    1
    39    31    33    1
    40    34    35    1
    41    34    36    1
    42    37    38    1
    43    37    39    1
    44    40    47   ar
    45    41    45   ar
    46    41    48   ar
    47    41    42    1
    48    43    47    1
    49    43    49    1
    50    43    44    1
    51    45    46    1
    52    47    48   ar
    53    49    51    1
    54    49    52    1
    55    49    50    1
    56    51    58   ar
    57    51    60   ar
    58    52    53    1
    59    52    54    1
    60    52    55    1
    61    56    62   ar
    62    56    64   ar
    63    56    57    1
    64    58    64   ar
    65    58    59    1
    66    60    62   ar
    67    60    61    1
    68    62    63    1
    69    64    65    1
@<TRIPOS>SUBSTRUCTURE
     1 RES1        1 GROUP             0 ****  ****    0  
@<TRIPOS>MOLECULE
LIGAND_00150
    65    69     1     0     0
SMALL
USER_CHARGES
****
Generated from the CSD

@<TRIPOS>ATOM
     1 C1       0.2571  -3.9669 -12.3515   C.ar      1 RES1   0.0000
     2 H2       1.1796  -4.3864 -12.7381   H         1 RES1   0.0000
     3 C3      -2.0807  -2.8570 -11.3846   C.ar      1 RES1   0.0000
     4 H4      -2.9951  -2.4109 -11.0077   H         1 RES1   0.0000
     5 C5      -0.9501  -4.6055 -12.6192   C.ar      1 RES1   0.0000
     6 C6       0.3055  -2.8024 -11.6057   C.ar      1 RES1   0.0000
     7 H7       1.2524  -2.3170 -11.3941   H         1 RES1   0.0000
     8 C8      -0.8681  -2.2766 -11.1437   C.ar      1 RES1   0.0000
     9 C9      -2.1139  -4.0278 -12.1196   C.ar      1 RES1   0.0000
    10 H10     -3.0705  -4.5033 -12.3040   H         1 RES1   0.0000
    11 C11     -1.0187  -5.8653 -13.4287   C.2       1 RES1   0.0000
    12 F12     -0.8286  -1.1285 -10.4142   F         1 RES1   0.0000
    13 N13     -1.3461  -7.9194 -14.2137   N.am      1 RES1   0.0000
    14 C14     -1.7556  -9.3492 -14.4252   C.3       1 RES1   0.0000
    15 H15     -1.4863  -9.6308 -15.4421   H         1 RES1   0.0000
    16 C16     -0.6688  -7.5593 -16.6198   C.3       1 RES1   0.0000
    17 H17      0.0868  -6.9794 -17.1458   H         1 RES1   0.0000
    18 H18     -0.3985  -8.6108 -16.6908   H         1 RES1   0.0000
    19 H19     -1.6202  -7.4183 -17.1283   H         1 RES1   0.0000
    20 C20     -0.5870  -5.9122 -14.7311   C.2       1 RES1   0.0000
    21 C21      0.0604  -4.8376 -15.5265   C.ar      1 RES1   0.0000
    22 O22     -1.9963  -7.6128 -12.0746   O.2       1 RES1   0.0000
    23 C23     -1.5043  -7.1661 -13.1026   C.2       1 RES1   0.0000
    24 N24     -0.7633  -7.1401 -15.2210   N.pl3     1 RES1   0.0000
    25 C25     -1.3899 -11.7241 -13.6816   C.3       1 RES1   0.0000
    26 H26     -0.8745 -12.3485 -12.9534   H         1 RES1   0.0000
    27 H27     -1.1033 -12.0273 -14.6875   H         1 RES1   0.0000
    28 C28     -3.6377 -11.0123 -14.4516   C.3       1 RES1   0.0000
    29 H29     -3.4185 -11.3069 -15.4769   H         1 RES1   0.0000
    30 H30     -4.7025 -11.1343 -14.2587   H         1 RES1   0.0000
    31 C31     -3.2598  -9.5512 -14.2605   C.3       1 RES1   0.0000
    32 H32     -3.7834  -8.9481 -15.0008   H         1 RES1   0.0000
    33 H33     -3.5543  -9.2350 -13.2608   H         1 RES1   0.0000
    34 C34     -1.0054 -10.2711 -13.4632   C.3       1 RES1   0.0000
    35 H35     -1.2482  -9.9895 -12.4396   H         1 RES1   0.0000
    36 H36      0.0655 -10.1588 -13.6262   H         1 RES1   0.0000
    37 N37     -2.8674 -11.8836 -13.5162   N.4       1 RES1   1.0000
    38 H38     -3.1175 -11.6409 -12.5629   H         1 RES1   0.0000
    39 H39     -3.1134 -12.8521 -13.6945   H         1 RES1   0.0000
    40 N40      1.0505  -5.2120 -16.3517   N.ar      1 RES1   0.0000
    41 C41      0.3664  -2.6002 -16.2028   C.ar      1 RES1   0.0000
    42 H42      0.0825  -1.5547 -16.1423   H         1 RES1   0.0000
    43 N43      2.6654  -4.6157 -17.8667   N.pl3     1 RES1   0.0000
    44 H44      3.1051  -3.8974 -18.4420   H         1 RES1   0.0000
    45 C45     -0.3206  -3.5078 -15.4220   C.ar      1 RES1   0.0000
    46 H46     -1.1186  -3.1952 -14.7566   H         1 RES1   0.0000
    47 C47      1.6606  -4.2456 -17.0567   C.ar      1 RES1   0.0000
    48 N48      1.3642  -2.9380 -17.0297   N.ar      1 RES1   0.0000
    49 C49      3.1270  -5.9949 -18.0224   C.3       1 RES1   0.0000
    50 H50      2.2659  -6.6705 -17.9028   H         1 RES1   0.0000
    51 C51      4.1810  -6.3706 -16.9994   C.ar      1 RES1   0.0000
    52 C52      3.6679  -6.1441 -19.4396   C.3       1 RES1   0.0000
    53 H53      3.9971  -7.1650 -19.6218   H         1 RES1   0.0000
    54 H54      2.9037  -5.8984 -20.1740   H         1 RES1   0.0000
    55 H55      4.5160  -5.4815 -19.5989   H         1 RES1   0.0000
    56 C56      6.1267  -7.0495 -15.1250   C.ar      1 RES1   0.0000
    57 H57      6.8841  -7.3135 -14.3944   H         1 RES1   0.0000
    58 C58      5.3796  -5.6746 -16.9362   C.ar      1 RES1   0.0000
    59 H59      5.5613  -4.8566 -17.6254   H         1 RES1   0.0000
    60 C60      3.9744  -7.4149 -16.1086   C.ar      1 RES1   0.0000
    61 H61      3.0457  -7.9747 -16.1402   H         1 RES1   0.0000
    62 C62      4.9424  -7.7510 -15.1772   C.ar      1 RES1   0.0000
    63 H63      4.7668  -8.5692 -14.4867   H         1 RES1   0.0000
    64 C64      6.3460  -6.0116 -16.0037   C.ar      1 RES1   0.0000
    65 H65      7.2776  -5.4569 -15.9653   H         1 RES1   0.0000
@<TRIPOS>BOND
     1     1     5   ar
     2     1     6   ar
     3     1     2    1
     4     3     8   ar
     5     3     9   ar
     6     3     4    1
     7     5     9   ar
     8     5    11    1
     9     6     8   ar
    10     6     7    1
    11     8    12    1
    12     9    10    1
    13    11    20    2
    14    11    23    1
    15    13    14    1
    16    13    23   am
    17    13    24    1
    18    14    31    1
    19    14    34    1
    20    14    15    1
    21    16    24    1
    22    16    17    1
    23    16    18    1
    24    16    19    1
    25    20    21    1
    26    20    24    1
    27    21    40   ar
    28    21    45   ar
    29    22    23    2
    30    25    34    1
    31    25    37    1
    32    25    26    1
    33    25    27    1
    34    28    31    1
    35    28    37    1
    36    28    29    1
    37    28    30    1
    38    31    32    1
    39    31    33    1
    40    34    35    1
    41    34    36    1
    42    37    38    1
    43    37    39    1
    44    40    47   ar
    45    41    45   ar
    46    41    48   ar
    47    41    42    1
    48    43    47    1
    49    43    49    1
    50    43    44    1
    51    45    46    1
    52    47    48   ar
    53    49    51    1
    54    49    52    1
    55    49    50    1
    56    51    58   ar
    57    51    60   ar
    58    52    53    1
    59    52    54    1
    60    52    55    1
    61    56    62   ar
    62    56    64   ar
    63    56    57    1
    64    58    64   ar
    65    58    59    1
    66    60    62   ar
    67    60    61    1
    68    62    63    1
    69    64    65    1
@<TRIPOS>SUBSTRUCTURE
     1 RES1        1 GROUP             0 ****  ****    0  
@<TRIPOS>MOLECULE
LIGAND_00151
    65    69     1     0     0
SMALL
USER_CHARGES
****
Generated from the CSD

@<TRIPOS>ATOM
     1 C1      -1.0588  -4.1607 -11.6332   C.ar      1 RES1   0.0000
     2 H2      -0.4869  -4.8995 -11.0823   H         1 RES1   0.0000
     3 C3      -2.4823  -2.2476 -13.0280   C.ar      1 RES1   0.0000
     4 H4      -3.0340  -1.4883 -13.5724   H         1 RES1   0.0000
     5 C5      -1.5289  -4.4692 -12.9062   C.ar      1 RES1   0.0000
     6 C6      -1.3011  -2.9267 -11.0559   C.ar      1 RES1   0.0000
     7 H7      -0.9388  -2.6989 -10.0590   H         1 RES1   0.0000
     8 C8      -2.0058  -2.0007 -11.7721   C.ar      1 RES1   0.0000
     9 C9      -2.2450  -3.4894 -13.5881   C.ar      1 RES1   0.0000
    10 H10     -2.6314  -3.6994 -14.5789   H         1 RES1   0.0000
    11 C11     -1.2712  -5.8002 -13.5461   C.2       1 RES1   0.0000
    12 F12     -2.2431  -0.7830 -11.2128   F         1 RES1   0.0000
    13 N13     -1.1666  -7.9489 -14.1073   N.am      1 RES1   0.0000
    14 C14     -1.3368  -9.4382 -14.2046   C.3       1 RES1   0.0000
    15 H15     -0.8393  -9.7765 -15.1123   H         1 RES1   0.0000
    16 C16     -0.0774  -7.7349 -16.3757   C.3       1 RES1   0.0000
    17 H17      0.7395  -7.1472 -16.7893   H         1 RES1   0.0000
    18 H18      0.2635  -8.7630 -16.2727   H         1 RES1   0.0000
    19 H19     -0.9005  -7.7200 -17.0870   H         1 RES1   0.0000
    20 C20     -0.5870  -5.9122 -14.7311   C.2       1 RES1   0.0000
    21 C21      0.0604  -4.8376 -15.5265   C.ar      1 RES1   0.0000
    22 O22     -2.2629  -7.5301 -12.1798   O.2       1 RES1   0.0000
    23 C23     -1.6388  -7.1199 -13.1497   C.2       1 RES1   0.0000
    24 N24     -0.5015  -7.1958 -15.0831   N.pl3     1 RES1   0.0000
    25 C25     -0.8172 -11.6427 -13.1105   C.3       1 RES1   0.0000
    26 H26     -0.3773 -12.1049 -12.2281   H         1 RES1   0.0000
    27 H27     -0.3022 -11.9985 -14.0016   H         1 RES1   0.0000
    28 C28     -2.9440 -11.3625 -14.3556   C.3       1 RES1   0.0000
    29 H29     -2.4919 -11.7220 -15.2787   H         1 RES1   0.0000
    30 H30     -4.0008 -11.6250 -14.3427   H         1 RES1   0.0000
    31 C31     -2.8047  -9.8491 -14.2878   C.3       1 RES1   0.0000
    32 H32     -3.2473  -9.4104 -15.1809   H         1 RES1   0.0000
    33 H33     -3.3278  -9.4825 -13.4058   H         1 RES1   0.0000
    34 C34     -0.6757 -10.1336 -13.0139   C.3       1 RES1   0.0000
    35 H35     -1.1487  -9.7907 -12.0950   H         1 RES1   0.0000
    36 H36      0.3824  -9.8766 -12.9953   H         1 RES1   0.0000
    37 N37     -2.2648 -12.0078 -13.1937   N.4       1 RES1   1.0000
    38 H38     -2.7261 -11.7113 -12.3396   H         1 RES1   0.0000
    39 H39     -2.3427 -13.0154 -13.2881   H         1 RES1   0.0000
    40 N40     -0.0039  -4.9545 -16.8621   N.ar      1 RES1   0.0000
    41 C41      1.2879  -2.8409 -15.7779   C.ar      1 RES1   0.0000
    42 H42      1.7995  -1.9922 -15.3360   H         1 RES1   0.0000
    43 N43      0.5551  -4.1295 -18.9273   N.pl3     1 RES1   0.0000
    44 H44      0.9414  -3.3736 -19.4928   H         1 RES1   0.0000
    45 C45      0.7132  -3.7678 -14.9318   C.ar      1 RES1   0.0000
    46 H46      0.7719  -3.6654 -13.8533   H         1 RES1   0.0000
    47 C47      0.6002  -4.0026 -17.5915   C.ar      1 RES1   0.0000
    48 N48      1.2501  -2.9313 -17.1136   N.ar      1 RES1   0.0000
    49 C49     -0.0697  -5.2542 -19.6232   C.3       1 RES1   0.0000
    50 H50     -0.8872  -5.6453 -18.9979   H         1 RES1   0.0000
    51 C51      0.9086  -6.3793 -19.8979   C.ar      1 RES1   0.0000
    52 C52     -0.6640  -4.7218 -20.9219   C.3       1 RES1   0.0000
    53 H53     -1.1723  -5.5141 -21.4674   H         1 RES1   0.0000
    54 H54     -1.3846  -3.9313 -20.7229   H         1 RES1   0.0000
    55 H55      0.1156  -4.3158 -21.5631   H         1 RES1   0.0000
    56 C56      2.7156  -8.4367 -20.4100   C.ar      1 RES1   0.0000
    57 H57      3.4197  -9.2379 -20.6087   H         1 RES1   0.0000
    58 C58      2.0816  -6.1363 -20.5980   C.ar      1 RES1   0.0000
    59 H59      2.2972  -5.1331 -20.9506   H         1 RES1   0.0000
    60 C60      0.6548  -7.6720 -19.4604   C.ar      1 RES1   0.0000
    61 H61     -0.2567  -7.8865 -18.9125   H         1 RES1   0.0000
    62 C62      1.5541  -8.6936 -19.7154   C.ar      1 RES1   0.0000
    63 H63      1.3428  -9.6990 -19.3668   H         1 RES1   0.0000
    64 C64      2.9800  -7.1589 -20.8514   C.ar      1 RES1   0.0000
    65 H65      3.8939  -6.9529 -21.3986   H         1 RES1   0.0000
@<TRIPOS>BOND
     1     1     5   ar
     2     1     6   ar
     3     1     2    1
     4     3     8   ar
     5     3     9   ar
     6     3     4    1
     7     5     9   ar
     8     5    11    1
     9     6     8   ar
    10     6     7    1
    11     8    12    1
    12     9    10    1
    13    11    20    2
    14    11    23    1
    15    13    14    1
    16    13    23   am
    17    13    24    1
    18    14    31    1
    19    14    34    1
    20    14    15    1
    21    16    24    1
    22    16    17    1
    23    16    18    1
    24    16    19    1
    25    20    21    1
    26    20    24    1
    27    21    40   ar
    28    21    45   ar
    29    22    23    2
    30    25    34    1
    31    25    37    1
    32    25    26    1
    33    25    27    1
    34    28    31    1
    35    28    37    1
    36    28    29    1
    37    28    30    1
    38    31    32    1
    39    31    33    1
    40    34    35    1
    41    34    36    1
    42    37    38    1
    43    37    39    1
    44    40    47   ar
    45    41    45   ar
    46    41    48   ar
    47    41    42    1
    48    43    47    1
    49    43    49    1
    50    43    44    1
    51    45    46    1
    52    47    48   ar
    53    49    51    1
    54    49    52    1
    55    49    50    1
    56    51    58   ar
    57    51    60   ar
    58    52    53    1
    59    52    54    1
    60    52    55    1
    61    56    62   ar
    62    56    64   ar
    63    56    57    1
    64    58    64   ar
    65    58    59    1
    66    60    62   ar
    67    60    61    1
    68    62    63    1
    69    64    65    1
@<TRIPOS>SUBSTRUCTURE
     1 RES1        1 GROUP             0 ****  ****    0  
@<TRIPOS>MOLECULE
LIGAND_00152
    65    69     1     0     0
SMALL
USER_CHARGES
****
Generated from the CSD

@<TRIPOS>ATOM
     1 C1      -3.2092  -4.1556 -15.8039   C.ar      1 RES1   0.0000
     2 H2      -4.0430  -4.8135 -15.5839   H         1 RES1   0.0000
     3 C3      -1.1097  -2.4440 -16.3464   C.ar      1 RES1   0.0000
     4 H4      -0.2916  -1.7630 -16.5566   H         1 RES1   0.0000
     5 C5      -1.9291  -4.5110 -15.3895   C.ar      1 RES1   0.0000
     6 C6      -3.4429  -2.9753 -16.4872   C.ar      1 RES1   0.0000
     7 H7      -4.4429  -2.7114 -16.8148   H         1 RES1   0.0000
     8 C8      -2.3842  -2.1485 -16.7382   C.ar      1 RES1   0.0000
     9 C9      -0.8876  -3.6331 -15.6763   C.ar      1 RES1   0.0000
    10 H10      0.1229  -3.8827 -15.3737   H         1 RES1   0.0000
    11 C11     -1.6612  -5.7843 -14.6451   C.2       1 RES1   0.0000
    12 F12     -2.6074  -0.9834 -17.4050   F         1 RES1   0.0000
    13 N13     -1.2006  -7.9305 -14.1569   N.am      1 RES1   0.0000
    14 C14     -1.4244  -9.4101 -14.2872   C.3       1 RES1   0.0000
    15 H15     -1.1552  -9.7046 -15.3005   H         1 RES1   0.0000
    16 C16     -0.7878  -7.6535 -11.7919   C.3       1 RES1   0.0000
    17 H17     -1.3252  -8.3835 -11.1900   H         1 RES1   0.0000
    18 H18      0.1625  -8.0928 -12.0883   H         1 RES1   0.0000
    19 H19     -0.5809  -6.7859 -11.1688   H         1 RES1   0.0000
    20 C20     -1.7513  -5.9390 -13.3057   C.2       1 RES1   0.0000
    21 C21     -2.0254  -4.9138 -12.2663   C.ar      1 RES1   0.0000
    22 O22     -1.2298  -7.4039 -16.3934   O.2       1 RES1   0.0000
    23 C23     -1.3285  -7.0568 -15.2238   C.2       1 RES1   0.0000
    24 N24     -1.5725  -7.2712 -12.9663   N.3       1 RES1   0.0000
    25 C25     -0.7224 -11.6769 -13.4531   C.3       1 RES1   0.0000
    26 H26     -0.1042 -12.1917 -12.7191   H         1 RES1   0.0000
    27 H27     -0.4328 -11.9899 -14.4551   H         1 RES1   0.0000
    28 C28     -3.0697 -11.3039 -14.1626   C.3       1 RES1   0.0000
    29 H29     -2.8487 -11.6182 -15.1815   H         1 RES1   0.0000
    30 H30     -4.1017 -11.5541 -13.9213   H         1 RES1   0.0000
    31 C31     -2.8821  -9.7983 -14.0527   C.3       1 RES1   0.0000
    32 H32     -3.5059  -9.3064 -14.7976   H         1 RES1   0.0000
    33 H33     -3.1813  -9.4738 -13.0572   H         1 RES1   0.0000
    34 C34     -0.5262 -10.1771 -13.3159   C.3       1 RES1   0.0000
    35 H35     -0.7689  -9.8790 -12.2970   H         1 RES1   0.0000
    36 H36      0.5141  -9.9343 -13.5271   H         1 RES1   0.0000
    37 N37     -2.1592 -12.0195 -13.2209   N.4       1 RES1   1.0000
    38 H38     -2.4064 -11.7644 -12.2701   H         1 RES1   0.0000
    39 H39     -2.2809 -13.0195 -13.3454   H         1 RES1   0.0000
    40 N40     -2.7110  -5.3194 -11.1860   N.ar      1 RES1   0.0000
    41 C41     -1.9384  -2.7348 -11.3712   C.ar      1 RES1   0.0000
    42 H42     -1.6199  -1.7005 -11.4495   H         1 RES1   0.0000
    43 N43     -3.6913  -4.7948  -9.1804   N.pl3     1 RES1   0.0000
    44 H44     -3.8668  -4.1132  -8.4422   H         1 RES1   0.0000
    45 C45     -1.6108  -3.5967 -12.3985   C.ar      1 RES1   0.0000
    46 H46     -1.0576  -3.2589 -13.2686   H         1 RES1   0.0000
    47 C47     -2.9872  -4.3954 -10.2516   C.ar      1 RES1   0.0000
    48 N48     -2.6281  -3.1038 -10.2841   N.ar      1 RES1   0.0000
    49 C49     -4.1685  -6.1624  -8.9766   C.3       1 RES1   0.0000
    50 H50     -3.4430  -6.8592  -9.4243   H         1 RES1   0.0000
    51 C51     -5.5238  -6.4024  -9.6121   C.ar      1 RES1   0.0000
    52 C52     -4.2204  -6.4148  -7.4743   C.3       1 RES1   0.0000
    53 H53     -4.5397  -7.4335  -7.2647   H         1 RES1   0.0000
    54 H54     -3.2419  -6.2667  -7.0223   H         1 RES1   0.0000
    55 H55     -4.9214  -5.7350  -6.9946   H         1 RES1   0.0000
    56 C56     -8.0179  -6.8285 -10.7777   C.ar      1 RES1   0.0000
    57 H57     -8.9889  -6.9944 -11.2324   H         1 RES1   0.0000
    58 C58     -6.4368  -5.3649  -9.7349   C.ar      1 RES1   0.0000
    59 H59     -6.1763  -4.3761  -9.3722   H         1 RES1   0.0000
    60 C60     -5.8826  -7.6586 -10.0813   C.ar      1 RES1   0.0000
    61 H61     -5.1859  -8.4857  -9.9945   H         1 RES1   0.0000
    62 C62     -7.1225  -7.8688 -10.6608   C.ar      1 RES1   0.0000
    63 H63     -7.3890  -8.8559 -11.0236   H         1 RES1   0.0000
    64 C64     -7.6758  -5.5768 -10.3153   C.ar      1 RES1   0.0000
    65 H65     -8.3785  -4.7551 -10.4059   H         1 RES1   0.0000
@<TRIPOS>BOND
     1     1     5   ar
     2     1     6   ar
     3     1     2    1
     4     3     8   ar
     5     3     9   ar
     6     3     4    1
     7     5     9   ar
     8     5    11    1
     9     6     8   ar
    10     6     7    1
    11     8    12    1
    12     9    10    1
    13    11    20    2
    14    11    23    1
    15    13    14    1
    16    13    23   am
    17    13    24    1
    18    14    31    1
    19    14    34    1
    20    14    15    1
    21    16    24    1
    22    16    17    1
    23    16    18    1
    24    16    19    1
    25    20    21    1
    26    20    24    1
    27    21    40   ar
    28    21    45   ar
    29    22    23    2
    30    25    34    1
    31    25    37    1
    32    25    26    1
    33    25    27    1
    34    28    31    1
    35    28    37    1
    36    28    29    1
    37    28    30    1
    38    31    32    1
    39    31    33    1
    40    34    35    1
    41    34    36    1
    42    37    38    1
    43    37    39    1
    44    40    47   ar
    45    41    45   ar
    46    41    48   ar
    47    41    42    1
    48    43    47    1
    49    43    49    1
    50    43    44    1
    51    45    46    1
    52    47    48   ar
    53    49    51    1
    54    49    52    1
    55    49    50    1
    56    51    58   ar
    57    51    60   ar
    58    52    53    1
    59    52    54    1
    60    52    55    1
    61    56    62   ar
    62    56    64   ar
    63    56    57    1
    64    58    64   ar
    65    58    59    1
    66    60    62   ar
    67    60    61    1
    68    62    63    1
    69    64    65    1
@<TRIPOS>SUBSTRUCTURE
     1 RES1        1 GROUP             0 ****  ****    0  
@<TRIPOS>MOLECULE
LIGAND_00153
    65    69     1     0     0
SMALL
USER_CHARGES
****
Generated from the CSD

@<TRIPOS>ATOM
     1 C1      -1.5693  -4.0718 -11.8680   C.ar      1 RES1   0.0000
     2 H2      -1.0734  -4.7944 -11.2289   H         1 RES1   0.0000
     3 C3      -2.8006  -2.1996 -13.4836   C.ar      1 RES1   0.0000
     4 H4      -3.2775  -1.4563 -14.1139   H         1 RES1   0.0000
     5 C5      -1.8617  -4.4108 -13.1857   C.ar      1 RES1   0.0000
     6 C6      -1.8931  -2.8279 -11.3559   C.ar      1 RES1   0.0000
     7 H7      -1.6698  -2.5763 -10.3245   H         1 RES1   0.0000
     8 C8      -2.4992  -1.9226 -12.1807   C.ar      1 RES1   0.0000
     9 C9      -2.4840  -3.4512 -13.9792   C.ar      1 RES1   0.0000
    10 H10     -2.7320  -3.6849 -15.0083   H         1 RES1   0.0000
    11 C11     -1.5136  -5.7529 -13.7556   C.2       1 RES1   0.0000
    12 F12     -2.8157  -0.6953 -11.6853   F         1 RES1   0.0000
    13 N13     -1.2095  -7.9377 -14.1221   N.am      1 RES1   0.0000
    14 C14     -1.4318  -9.4184 -14.2431   C.3       1 RES1   0.0000
    15 H15     -0.9617  -9.7563 -15.1655   H         1 RES1   0.0000
    16 C16      0.6790  -7.7951 -15.6775   C.3       1 RES1   0.0000
    17 H17      1.4319  -7.0227 -15.8202   H         1 RES1   0.0000
    18 H18      1.0866  -8.5444 -15.0020   H         1 RES1   0.0000
    19 H19      0.4931  -8.2699 -16.6386   H         1 RES1   0.0000
    20 C20     -0.6831  -5.9011 -14.8182   C.2       1 RES1   0.0000
    21 C21      0.0470  -4.8479 -15.5693   C.ar      1 RES1   0.0000
    22 O22     -2.6542  -7.4209 -12.3994   O.2       1 RES1   0.0000
    23 C23     -1.8964  -7.0628 -13.2914   C.2       1 RES1   0.0000
    24 N24     -0.5545  -7.2233 -15.1363   N.3       1 RES1   0.0000
    25 C25     -0.9684 -11.6590 -13.1983   C.3       1 RES1   0.0000
    26 H26     -0.5292 -12.1521 -12.3323   H         1 RES1   0.0000
    27 H27     -0.4811 -12.0153 -14.1047   H         1 RES1   0.0000
    28 C28     -3.1057 -11.2845 -14.3999   C.3       1 RES1   0.0000
    29 H29     -2.6820 -11.6418 -15.3373   H         1 RES1   0.0000
    30 H30     -4.1704 -11.5116 -14.3729   H         1 RES1   0.0000
    31 C31     -2.9140  -9.7782 -14.3075   C.3       1 RES1   0.0000
    32 H32     -3.3568  -9.3084 -15.1844   H         1 RES1   0.0000
    33 H33     -3.4090  -9.4106 -13.4098   H         1 RES1   0.0000
    34 C34     -0.7742 -10.1576 -13.0771   C.3       1 RES1   0.0000
    35 H35     -1.2194  -9.8161 -12.1438   H         1 RES1   0.0000
    36 H36      0.2922  -9.9367 -13.0728   H         1 RES1   0.0000
    37 N37     -2.4287 -11.9737 -13.2622   N.4       1 RES1   1.0000
    38 H38     -2.8650 -11.6778 -12.3948   H         1 RES1   0.0000
    39 H39     -2.5424 -12.9762 -13.3733   H         1 RES1   0.0000
    40 N40      0.2250  -5.0583 -16.8830   N.ar      1 RES1   0.0000
    41 C41      1.2109  -2.8065 -15.7564   C.ar      1 RES1   0.0000
    42 H42      1.5987  -1.9024 -15.2988   H         1 RES1   0.0000
    43 N43      1.1035  -4.3445 -18.8772   N.pl3     1 RES1   0.0000
    44 H44      0.7685  -5.2238 -19.2707   H         1 RES1   0.0000
    45 C45      0.5369  -3.7052 -14.9542   C.ar      1 RES1   0.0000
    46 H46      0.3995  -3.5269 -13.8928   H         1 RES1   0.0000
    47 C47      0.9062  -4.1252 -17.5674   C.ar      1 RES1   0.0000
    48 N48      1.4138  -2.9891 -17.0676   N.ar      1 RES1   0.0000
    49 C49      1.8244  -3.4295 -19.7619   C.3       1 RES1   0.0000
    50 H50      2.6170  -2.9307 -19.1829   H         1 RES1   0.0000
    51 C51      0.9200  -2.3678 -20.3563   C.ar      1 RES1   0.0000
    52 C52      2.4761  -4.2640 -20.8583   C.3       1 RES1   0.0000
    53 H53      3.0555  -3.6342 -21.5302   H         1 RES1   0.0000
    54 H54      3.1443  -5.0096 -20.4324   H         1 RES1   0.0000
    55 H55      1.7216  -4.7820 -21.4466   H         1 RES1   0.0000
    56 C56     -0.7538  -0.4268 -21.4478   C.ar      1 RES1   0.0000
    57 H57     -1.4057   0.3295 -21.8722   H         1 RES1   0.0000
    58 C58     -0.4218  -2.6352 -20.5865   C.ar      1 RES1   0.0000
    59 H59     -0.8237  -3.6121 -20.3389   H         1 RES1   0.0000
    60 C60      1.4101  -1.1113 -20.6847   C.ar      1 RES1   0.0000
    61 H61      2.4564  -0.8796 -20.5153   H         1 RES1   0.0000
    62 C62      0.5769  -0.1473 -21.2268   C.ar      1 RES1   0.0000
    63 H63      0.9737   0.8306 -21.4780   H         1 RES1   0.0000
    64 C64     -1.2536  -1.6699 -21.1280   C.ar      1 RES1   0.0000
    65 H65     -2.3012  -1.8934 -21.3006   H         1 RES1   0.0000
@<TRIPOS>BOND
     1     1     5   ar
     2     1     6   ar
     3     1     2    1
     4     3     8   ar
     5     3     9   ar
     6     3     4    1
     7     5     9   ar
     8     5    11    1
     9     6     8   ar
    10     6     7    1
    11     8    12    1
    12     9    10    1
    13    11    20    2
    14    11    23    1
    15    13    14    1
    16    13    23   am
    17    13    24    1
    18    14    31    1
    19    14    34    1
    20    14    15    1
    21    16    24    1
    22    16    17    1
    23    16    18    1
    24    16    19    1
    25    20    21    1
    26    20    24    1
    27    21    40   ar
    28    21    45   ar
    29    22    23    2
    30    25    34    1
    31    25    37    1
    32    25    26    1
    33    25    27    1
    34    28    31    1
    35    28    37    1
    36    28    29    1
    37    28    30    1
    38    31    32    1
    39    31    33    1
    40    34    35    1
    41    34    36    1
    42    37    38    1
    43    37    39    1
    44    40    47   ar
    45    41    45   ar
    46    41    48   ar
    47    41    42    1
    48    43    47    1
    49    43    49    1
    50    43    44    1
    51    45    46    1
    52    47    48   ar
    53    49    51    1
    54    49    52    1
    55    49    50    1
    56    51    58   ar
    57    51    60   ar
    58    52    53    1
    59    52    54    1
    60    52    55    1
    61    56    62   ar
    62    56    64   ar
    63    56    57    1
    64    58    64   ar
    65    58    59    1
    66    60    62   ar
    67    60    61    1
    68    62    63    1
    69    64    65    1
@<TRIPOS>SUBSTRUCTURE
     1 RES1        1 GROUP             0 ****  ****    0  
@<TRIPOS>MOLECULE
LIGAND_00154
    65    69     1     0     0
SMALL
USER_CHARGES
****
Generated from the CSD

@<TRIPOS>ATOM
     1 C1      -0.3701  -3.8964 -15.9918   C.ar      1 RES1   0.0000
     2 H2      -1.1642  -4.3349 -16.5863   H         1 RES1   0.0000
     3 C3       1.6297  -2.7392 -14.4773   C.ar      1 RES1   0.0000
     4 H4       2.4102  -2.2746 -13.8839   H         1 RES1   0.0000
     5 C5       0.0599  -4.5461 -14.8386   C.ar      1 RES1   0.0000
     6 C6       0.1911  -2.6974 -16.3942   C.ar      1 RES1   0.0000
     7 H7      -0.1441  -2.2032 -17.2999   H         1 RES1   0.0000
     8 C8       1.1764  -2.1489 -15.6225   C.ar      1 RES1   0.0000
     9 C9       1.0700  -3.9440 -14.0935   C.ar      1 RES1   0.0000
    10 H10      1.4331  -4.4269 -13.1935   H         1 RES1   0.0000
    11 C11     -0.5410  -5.8434 -14.3880   C.2       1 RES1   0.0000
    12 F12      1.7291  -0.9670 -16.0092   F         1 RES1   0.0000
    13 N13     -1.2406  -7.9410 -14.1570   N.am      1 RES1   0.0000
    14 C14     -1.5106  -9.4109 -14.3092   C.3       1 RES1   0.0000
    15 H15     -1.0788  -9.7376 -15.2541   H         1 RES1   0.0000
    16 C16     -2.0882  -7.8386 -11.7803   C.3       1 RES1   0.0000
    17 H17     -2.6362  -7.1178 -11.1771   H         1 RES1   0.0000
    18 H18     -2.7548  -8.6689 -12.0043   H         1 RES1   0.0000
    19 H19     -1.2602  -8.2191 -11.1860   H         1 RES1   0.0000
    20 C20     -1.1594  -5.9688 -13.1688   C.2       1 RES1   0.0000
    21 C21     -1.4160  -4.9157 -12.1531   C.ar      1 RES1   0.0000
    22 O22     -0.1808  -7.5094 -16.1020   O.2       1 RES1   0.0000
    23 C23     -0.6007  -7.1206 -15.0199   C.2       1 RES1   0.0000
    24 N24     -1.5984  -7.2184 -13.0119   N.pl3     1 RES1   0.0000
    25 C25     -1.0831 -11.6911 -13.3373   C.3       1 RES1   0.0000
    26 H26     -0.6330 -12.2197 -12.4982   H         1 RES1   0.0000
    27 H27     -0.6342 -12.0371 -14.2672   H         1 RES1   0.0000
    28 C28     -3.2435 -11.2227 -14.4622   C.3       1 RES1   0.0000
    29 H29     -2.8591 -11.5671 -15.4211   H         1 RES1   0.0000
    30 H30     -4.3132 -11.4194 -14.4081   H         1 RES1   0.0000
    31 C31     -3.0042  -9.7256 -14.3370   C.3       1 RES1   0.0000
    32 H32     -3.4589  -9.2199 -15.1874   H         1 RES1   0.0000
    33 H33     -3.4607  -9.3679 -13.4153   H         1 RES1   0.0000
    34 C34     -0.8405 -10.1997 -13.1835   C.3       1 RES1   0.0000
    35 H35     -1.2470  -9.8704 -12.2284   H         1 RES1   0.0000
    36 H36      0.2316 -10.0101 -13.2065   H         1 RES1   0.0000
    37 N37     -2.5534 -11.9614 -13.3641   N.4       1 RES1   1.0000
    38 H38     -2.9543 -11.6761 -12.4763   H         1 RES1   0.0000
    39 H39     -2.7003 -12.9568 -13.4974   H         1 RES1   0.0000
    40 N40     -0.4619  -4.7249 -11.2286   N.ar      1 RES1   0.0000
    41 C41     -2.7124  -3.2288 -11.1379   C.ar      1 RES1   0.0000
    42 H42     -3.6155  -2.6280 -11.1111   H         1 RES1   0.0000
    43 N43      0.2500  -3.6161  -9.3518   N.pl3     1 RES1   0.0000
    44 H44      1.0644  -4.2299  -9.3711   H         1 RES1   0.0000
    45 C45     -2.5846  -4.1682 -12.1411   C.ar      1 RES1   0.0000
    46 H46     -3.3622  -4.3161 -12.8831   H         1 RES1   0.0000
    47 C47     -0.6941  -3.7933 -10.2898   C.ar      1 RES1   0.0000
    48 N48     -1.7846  -3.0185 -10.1952   N.ar      1 RES1   0.0000
    49 C49      0.1542  -2.6402  -8.2665   C.3       1 RES1   0.0000
    50 H50     -0.4893  -1.8095  -8.5953   H         1 RES1   0.0000
    51 C51      1.5062  -2.0773  -7.8744   C.ar      1 RES1   0.0000
    52 C52     -0.5115  -3.3302  -7.0816   C.3       1 RES1   0.0000
    53 H53     -0.6380  -2.6373  -6.2524   H         1 RES1   0.0000
    54 H54     -1.4924  -3.7122  -7.3566   H         1 RES1   0.0000
    55 H55      0.0925  -4.1661  -6.7349   H         1 RES1   0.0000
    56 C56      3.9971  -1.0567  -7.1572   C.ar      1 RES1   0.0000
    57 H57      4.9672  -0.6589  -6.8786   H         1 RES1   0.0000
    58 C58      2.6448  -2.8667  -7.9474   C.ar      1 RES1   0.0000
    59 H59      2.5639  -3.8938  -8.2874   H         1 RES1   0.0000
    60 C60      1.6362  -0.7676  -7.4332   C.ar      1 RES1   0.0000
    61 H61      0.7597  -0.1318  -7.3661   H         1 RES1   0.0000
    62 C62      2.8751  -0.2615  -7.0775   C.ar      1 RES1   0.0000
    63 H63      2.9617   0.7643  -6.7350   H         1 RES1   0.0000
    64 C64      3.8828  -2.3588  -7.5920   C.ar      1 RES1   0.0000
    65 H65      4.7644  -2.9879  -7.6561   H         1 RES1   0.0000
@<TRIPOS>BOND
     1     1     5   ar
     2     1     6   ar
     3     1     2    1
     4     3     8   ar
     5     3     9   ar
     6     3     4    1
     7     5     9   ar
     8     5    11    1
     9     6     8   ar
    10     6     7    1
    11     8    12    1
    12     9    10    1
    13    11    20    2
    14    11    23    1
    15    13    14    1
    16    13    23   am
    17    13    24    1
    18    14    31    1
    19    14    34    1
    20    14    15    1
    21    16    24    1
    22    16    17    1
    23    16    18    1
    24    16    19    1
    25    20    21    1
    26    20    24    1
    27    21    40   ar
    28    21    45   ar
    29    22    23    2
    30    25    34    1
    31    25    37    1
    32    25    26    1
    33    25    27    1
    34    28    31    1
    35    28    37    1
    36    28    29    1
    37    28    30    1
    38    31    32    1
    39    31    33    1
    40    34    35    1
    41    34    36    1
    42    37    38    1
    43    37    39    1
    44    40    47   ar
    45    41    45   ar
    46    41    48   ar
    47    41    42    1
    48    43    47    1
    49    43    49    1
    50    43    44    1
    51    45    46    1
    52    47    48   ar
    53    49    51    1
    54    49    52    1
    55    49    50    1
    56    51    58   ar
    57    51    60   ar
    58    52    53    1
    59    52    54    1
    60    52    55    1
    61    56    62   ar
    62    56    64   ar
    63    56    57    1
    64    58    64   ar
    65    58    59    1
    66    60    62   ar
    67    60    61    1
    68    62    63    1
    69    64    65    1
@<TRIPOS>SUBSTRUCTURE
     1 RES1        1 GROUP             0 ****  ****    0  
@<TRIPOS>MOLECULE
LIGAND_00155
    65    69     1     0     0
SMALL
USER_CHARGES
****
Generated from the CSD

@<TRIPOS>ATOM
     1 C1      -0.7027  -3.3903 -14.9781   C.ar      1 RES1   0.0000
     2 H2      -1.7635  -3.4211 -14.7543   H         1 RES1   0.0000
     3 C3       2.0037  -3.2747 -15.5205   C.ar      1 RES1   0.0000
     4 H4       3.0672  -3.2194 -15.7282   H         1 RES1   0.0000
     5 C5       0.0599  -4.5461 -14.8386   C.ar      1 RES1   0.0000
     6 C6      -0.1343  -2.1985 -15.3916   C.ar      1 RES1   0.0000
     7 H7      -0.7388  -1.3050 -15.5067   H         1 RES1   0.0000
     8 C8       1.2073  -2.1727 -15.6497   C.ar      1 RES1   0.0000
     9 C9       1.4207  -4.4628 -15.1196   C.ar      1 RES1   0.0000
    10 H10      2.0424  -5.3462 -15.0278   H         1 RES1   0.0000
    11 C11     -0.5410  -5.8434 -14.3880   C.2       1 RES1   0.0000
    12 F12      1.7741  -1.0026 -16.0515   F         1 RES1   0.0000
    13 N13     -1.2406  -7.9410 -14.1570   N.am      1 RES1   0.0000
    14 C14     -1.5106  -9.4109 -14.3092   C.3       1 RES1   0.0000
    15 H15     -1.0788  -9.7376 -15.2541   H         1 RES1   0.0000
    16 C16     -2.0882  -7.8386 -11.7803   C.3       1 RES1   0.0000
    17 H17     -2.6362  -7.1178 -11.1771   H         1 RES1   0.0000
    18 H18     -2.7548  -8.6689 -12.0043   H         1 RES1   0.0000
    19 H19     -1.2602  -8.2191 -11.1860   H         1 RES1   0.0000
    20 C20     -1.1594  -5.9688 -13.1688   C.2       1 RES1   0.0000
    21 C21     -1.4160  -4.9157 -12.1531   C.ar      1 RES1   0.0000
    22 O22     -0.1808  -7.5094 -16.1020   O.2       1 RES1   0.0000
    23 C23     -0.6007  -7.1206 -15.0199   C.2       1 RES1   0.0000
    24 N24     -1.5984  -7.2184 -13.0119   N.pl3     1 RES1   0.0000
    25 C25     -1.0831 -11.6911 -13.3373   C.3       1 RES1   0.0000
    26 H26     -0.6330 -12.2197 -12.4982   H         1 RES1   0.0000
    27 H27     -0.6342 -12.0371 -14.2672   H         1 RES1   0.0000
    28 C28     -3.2435 -11.2227 -14.4622   C.3       1 RES1   0.0000
    29 H29     -2.8591 -11.5671 -15.4211   H         1 RES1   0.0000
    30 H30     -4.3132 -11.4194 -14.4081   H         1 RES1   0.0000
    31 C31     -3.0042  -9.7256 -14.3370   C.3       1 RES1   0.0000
    32 H32     -3.4589  -9.2199 -15.1874   H         1 RES1   0.0000
    33 H33     -3.4607  -9.3679 -13.4153   H         1 RES1   0.0000
    34 C34     -0.8405 -10.1997 -13.1835   C.3       1 RES1   0.0000
    35 H35     -1.2470  -9.8704 -12.2284   H         1 RES1   0.0000
    36 H36      0.2316 -10.0101 -13.2065   H         1 RES1   0.0000
    37 N37     -2.5534 -11.9614 -13.3641   N.4       1 RES1   1.0000
    38 H38     -2.9543 -11.6761 -12.4763   H         1 RES1   0.0000
    39 H39     -2.7003 -12.9568 -13.4974   H         1 RES1   0.0000
    40 N40     -0.4619  -4.7249 -11.2286   N.ar      1 RES1   0.0000
    41 C41     -2.7124  -3.2288 -11.1379   C.ar      1 RES1   0.0000
    42 H42     -3.6155  -2.6280 -11.1111   H         1 RES1   0.0000
    43 N43      0.2500  -3.6161  -9.3518   N.pl3     1 RES1   0.0000
    44 H44      1.0644  -4.2299  -9.3711   H         1 RES1   0.0000
    45 C45     -2.5846  -4.1682 -12.1411   C.ar      1 RES1   0.0000
    46 H46     -3.3622  -4.3161 -12.8831   H         1 RES1   0.0000
    47 C47     -0.6941  -3.7933 -10.2898   C.ar      1 RES1   0.0000
    48 N48     -1.7846  -3.0185 -10.1952   N.ar      1 RES1   0.0000
    49 C49      0.1542  -2.6402  -8.2665   C.3       1 RES1   0.0000
    50 H50     -0.4893  -1.8095  -8.5953   H         1 RES1   0.0000
    51 C51      1.5062  -2.0773  -7.8744   C.ar      1 RES1   0.0000
    52 C52     -0.5115  -3.3302  -7.0816   C.3       1 RES1   0.0000
    53 H53     -0.6380  -2.6373  -6.2524   H         1 RES1   0.0000
    54 H54     -1.4924  -3.7122  -7.3566   H         1 RES1   0.0000
    55 H55      0.0925  -4.1661  -6.7349   H         1 RES1   0.0000
    56 C56      3.9971  -1.0567  -7.1572   C.ar      1 RES1   0.0000
    57 H57      4.9672  -0.6589  -6.8786   H         1 RES1   0.0000
    58 C58      2.6448  -2.8667  -7.9474   C.ar      1 RES1   0.0000
    59 H59      2.5639  -3.8938  -8.2874   H         1 RES1   0.0000
    60 C60      1.6362  -0.7676  -7.4332   C.ar      1 RES1   0.0000
    61 H61      0.7597  -0.1318  -7.3661   H         1 RES1   0.0000
    62 C62      2.8751  -0.2615  -7.0775   C.ar      1 RES1   0.0000
    63 H63      2.9617   0.7643  -6.7350   H         1 RES1   0.0000
    64 C64      3.8828  -2.3588  -7.5920   C.ar      1 RES1   0.0000
    65 H65      4.7644  -2.9879  -7.6561   H         1 RES1   0.0000
@<TRIPOS>BOND
     1     1     5   ar
     2     1     6   ar
     3     1     2    1
     4     3     8   ar
     5     3     9   ar
     6     3     4    1
     7     5     9   ar
     8     5    11    1
     9     6     8   ar
    10     6     7    1
    11     8    12    1
    12     9    10    1
    13    11    20    2
    14    11    23    1
    15    13    14    1
    16    13    23   am
    17    13    24    1
    18    14    31    1
    19    14    34    1
    20    14    15    1
    21    16    24    1
    22    16    17    1
    23    16    18    1
    24    16    19    1
    25    20    21    1
    26    20    24    1
    27    21    40   ar
    28    21    45   ar
    29    22    23    2
    30    25    34    1
    31    25    37    1
    32    25    26    1
    33    25    27    1
    34    28    31    1
    35    28    37    1
    36    28    29    1
    37    28    30    1
    38    31    32    1
    39    31    33    1
    40    34    35    1
    41    34    36    1
    42    37    38    1
    43    37    39    1
    44    40    47   ar
    45    41    45   ar
    46    41    48   ar
    47    41    42    1
    48    43    47    1
    49    43    49    1
    50    43    44    1
    51    45    46    1
    52    47    48   ar
    53    49    51    1
    54    49    52    1
    55    49    50    1
    56    51    58   ar
    57    51    60   ar
    58    52    53    1
    59    52    54    1
    60    52    55    1
    61    56    62   ar
    62    56    64   ar
    63    56    57    1
    64    58    64   ar
    65    58    59    1
    66    60    62   ar
    67    60    61    1
    68    62    63    1
    69    64    65    1
@<TRIPOS>SUBSTRUCTURE
     1 RES1        1 GROUP             0 ****  ****    0  
@<TRIPOS>MOLECULE
LIGAND_00156
    65    69     1     0     0
SMALL
USER_CHARGES
****
Generated from the CSD

@<TRIPOS>ATOM
     1 C1      -0.3701  -3.8964 -15.9918   C.ar      1 RES1   0.0000
     2 H2      -1.1642  -4.3349 -16.5863   H         1 RES1   0.0000
     3 C3       1.6297  -2.7392 -14.4773   C.ar      1 RES1   0.0000
     4 H4       2.4102  -2.2746 -13.8839   H         1 RES1   0.0000
     5 C5       0.0599  -4.5461 -14.8386   C.ar      1 RES1   0.0000
     6 C6       0.1911  -2.6974 -16.3942   C.ar      1 RES1   0.0000
     7 H7      -0.1441  -2.2032 -17.2999   H         1 RES1   0.0000
     8 C8       1.1764  -2.1489 -15.6225   C.ar      1 RES1   0.0000
     9 C9       1.0700  -3.9440 -14.0935   C.ar      1 RES1   0.0000
    10 H10      1.4331  -4.4269 -13.1935   H         1 RES1   0.0000
    11 C11     -0.5410  -5.8434 -14.3880   C.2       1 RES1   0.0000
    12 F12      1.7291  -0.9670 -16.0092   F         1 RES1   0.0000
    13 N13     -1.2406  -7.9410 -14.1570   N.am      1 RES1   0.0000
    14 C14     -1.5106  -9.4109 -14.3092   C.3       1 RES1   0.0000
    15 H15     -1.0789  -9.7376 -15.2541   H         1 RES1   0.0000
    16 C16     -2.0882  -7.8386 -11.7803   C.3       1 RES1   0.0000
    17 H17     -2.6361  -7.1177 -11.1770   H         1 RES1   0.0000
    18 H18     -2.7550  -8.6688 -12.0043   H         1 RES1   0.0000
    19 H19     -1.2602  -8.2192 -11.1860   H         1 RES1   0.0000
    20 C20     -1.1594  -5.9688 -13.1688   C.2       1 RES1   0.0000
    21 C21     -1.4160  -4.9157 -12.1531   C.ar      1 RES1   0.0000
    22 O22     -0.1808  -7.5094 -16.1020   O.2       1 RES1   0.0000
    23 C23     -0.6007  -7.1206 -15.0199   C.2       1 RES1   0.0000
    24 N24     -1.5984  -7.2184 -13.0119   N.pl3     1 RES1   0.0000
    25 C25     -1.0831 -11.6911 -13.3373   C.3       1 RES1   0.0000
    26 H26     -0.6329 -12.2197 -12.4983   H         1 RES1   0.0000
    27 H27     -0.6342 -12.0371 -14.2672   H         1 RES1   0.0000
    28 C28     -3.2434 -11.2227 -14.4622   C.3       1 RES1   0.0000
    29 H29     -2.8591 -11.5671 -15.4211   H         1 RES1   0.0000
    30 H30     -4.3132 -11.4194 -14.4080   H         1 RES1   0.0000
    31 C31     -3.0042  -9.7256 -14.3369   C.3       1 RES1   0.0000
    32 H32     -3.4590  -9.2199 -15.1874   H         1 RES1   0.0000
    33 H33     -3.4607  -9.3679 -13.4152   H         1 RES1   0.0000
    34 C34     -0.8405 -10.1997 -13.1836   C.3       1 RES1   0.0000
    35 H35     -1.2470  -9.8704 -12.2284   H         1 RES1   0.0000
    36 H36      0.2317 -10.0101 -13.2065   H         1 RES1   0.0000
    37 N37     -2.5534 -11.9614 -13.3641   N.4       1 RES1   1.0000
    38 H38     -2.9542 -11.6762 -12.4762   H         1 RES1   0.0000
    39 H39     -2.7002 -12.9568 -13.4973   H         1 RES1   0.0000
    40 N40     -0.4619  -4.7249 -11.2286   N.ar      1 RES1   0.0000
    41 C41     -2.7124  -3.2288 -11.1379   C.ar      1 RES1   0.0000
    42 H42     -3.6155  -2.6280 -11.1111   H         1 RES1   0.0000
    43 N43      0.2500  -3.6161  -9.3518   N.pl3     1 RES1   0.0000
    44 H44      0.1074  -2.8771  -8.6634   H         1 RES1   0.0000
    45 C45     -2.5846  -4.1682 -12.1411   C.ar      1 RES1   0.0000
    46 H46     -3.3622  -4.3161 -12.8831   H         1 RES1   0.0000
    47 C47     -0.6941  -3.7933 -10.2898   C.ar      1 RES1   0.0000
    48 N48     -1.7846  -3.0185 -10.1952   N.ar      1 RES1   0.0000
    49 C49      1.4995  -4.3743  -9.2930   C.3       1 RES1   0.0000
    50 H50      1.3397  -5.3545  -9.7684   H         1 RES1   0.0000
    51 C51      1.9726  -4.5993  -7.8703   C.ar      1 RES1   0.0000
    52 C52      2.5431  -3.6088 -10.0980   C.3       1 RES1   0.0000
    53 H53      3.4886  -4.1468 -10.1150   H         1 RES1   0.0000
    54 H54      2.2142  -3.4693 -11.1256   H         1 RES1   0.0000
    55 H55      2.7200  -2.6275  -9.6628   H         1 RES1   0.0000
    56 C56      2.8359  -4.9990  -5.2520   C.ar      1 RES1   0.0000
    57 H57      3.1715  -5.1551  -4.2322   H         1 RES1   0.0000
    58 C58      1.7390  -3.6438  -6.8919   C.ar      1 RES1   0.0000
    59 H59      1.2142  -2.7298  -7.1499   H         1 RES1   0.0000
    60 C60      2.6488  -5.7584  -7.5151   C.ar      1 RES1   0.0000
    61 H61      2.8446  -6.5191  -8.2635   H         1 RES1   0.0000
    62 C62      3.0770  -5.9559  -6.2132   C.ar      1 RES1   0.0000
    63 H63      3.6037  -6.8670  -5.9499   H         1 RES1   0.0000
    64 C64      2.1672  -3.8432  -5.5904   C.ar      1 RES1   0.0000
    65 H65      1.9755  -3.0875  -4.8359   H         1 RES1   0.0000
@<TRIPOS>BOND
     1     1     5   ar
     2     1     6   ar
     3     1     2    1
     4     3     8   ar
     5     3     9   ar
     6     3     4    1
     7     5     9   ar
     8     5    11    1
     9     6     8   ar
    10     6     7    1
    11     8    12    1
    12     9    10    1
    13    11    20    2
    14    11    23    1
    15    13    14    1
    16    13    23   am
    17    13    24    1
    18    14    31    1
    19    14    34    1
    20    14    15    1
    21    16    24    1
    22    16    17    1
    23    16    18    1
    24    16    19    1
    25    20    21    1
    26    20    24    1
    27    21    40   ar
    28    21    45   ar
    29    22    23    2
    30    25    34    1
    31    25    37    1
    32    25    26    1
    33    25    27    1
    34    28    31    1
    35    28    37    1
    36    28    29    1
    37    28    30    1
    38    31    32    1
    39    31    33    1
    40    34    35    1
    41    34    36    1
    42    37    38    1
    43    37    39    1
    44    40    47   ar
    45    41    45   ar
    46    41    48   ar
    47    41    42    1
    48    43    47    1
    49    43    49    1
    50    43    44    1
    51    45    46    1
    52    47    48   ar
    53    49    51    1
    54    49    52    1
    55    49    50    1
    56    51    58   ar
    57    51    60   ar
    58    52    53    1
    59    52    54    1
    60    52    55    1
    61    56    62   ar
    62    56    64   ar
    63    56    57    1
    64    58    64   ar
    65    58    59    1
    66    60    62   ar
    67    60    61    1
    68    62    63    1
    69    64    65    1
@<TRIPOS>SUBSTRUCTURE
     1 RES1        1 GROUP             0 ****  ****    0  
@<TRIPOS>MOLECULE
LIGAND_00157
    65    69     1     0     0
SMALL
USER_CHARGES
****
Generated from the CSD

@<TRIPOS>ATOM
     1 C1      -0.7027  -3.3903 -14.9781   C.ar      1 RES1   0.0000
     2 H2      -1.7635  -3.4211 -14.7543   H         1 RES1   0.0000
     3 C3       2.0037  -3.2747 -15.5205   C.ar      1 RES1   0.0000
     4 H4       3.0672  -3.2194 -15.7282   H         1 RES1   0.0000
     5 C5       0.0599  -4.5461 -14.8386   C.ar      1 RES1   0.0000
     6 C6      -0.1343  -2.1985 -15.3916   C.ar      1 RES1   0.0000
     7 H7      -0.7388  -1.3050 -15.5067   H         1 RES1   0.0000
     8 C8       1.2073  -2.1727 -15.6497   C.ar      1 RES1   0.0000
     9 C9       1.4207  -4.4628 -15.1196   C.ar      1 RES1   0.0000
    10 H10      2.0424  -5.3462 -15.0278   H         1 RES1   0.0000
    11 C11     -0.5410  -5.8434 -14.3880   C.2       1 RES1   0.0000
    12 F12      1.7741  -1.0026 -16.0515   F         1 RES1   0.0000
    13 N13     -1.2406  -7.9410 -14.1570   N.am      1 RES1   0.0000
    14 C14     -1.5106  -9.4109 -14.3092   C.3       1 RES1   0.0000
    15 H15     -1.0789  -9.7376 -15.2541   H         1 RES1   0.0000
    16 C16     -2.0882  -7.8386 -11.7803   C.3       1 RES1   0.0000
    17 H17     -2.6361  -7.1177 -11.1770   H         1 RES1   0.0000
    18 H18     -2.7550  -8.6688 -12.0043   H         1 RES1   0.0000
    19 H19     -1.2602  -8.2192 -11.1860   H         1 RES1   0.0000
    20 C20     -1.1594  -5.9688 -13.1688   C.2       1 RES1   0.0000
    21 C21     -1.4160  -4.9157 -12.1531   C.ar      1 RES1   0.0000
    22 O22     -0.1808  -7.5094 -16.1020   O.2       1 RES1   0.0000
    23 C23     -0.6007  -7.1206 -15.0199   C.2       1 RES1   0.0000
    24 N24     -1.5984  -7.2184 -13.0119   N.pl3     1 RES1   0.0000
    25 C25     -1.0831 -11.6911 -13.3373   C.3       1 RES1   0.0000
    26 H26     -0.6329 -12.2197 -12.4983   H         1 RES1   0.0000
    27 H27     -0.6342 -12.0371 -14.2672   H         1 RES1   0.0000
    28 C28     -3.2434 -11.2227 -14.4622   C.3       1 RES1   0.0000
    29 H29     -2.8591 -11.5671 -15.4211   H         1 RES1   0.0000
    30 H30     -4.3132 -11.4194 -14.4080   H         1 RES1   0.0000
    31 C31     -3.0042  -9.7256 -14.3369   C.3       1 RES1   0.0000
    32 H32     -3.4590  -9.2199 -15.1874   H         1 RES1   0.0000
    33 H33     -3.4607  -9.3679 -13.4152   H         1 RES1   0.0000
    34 C34     -0.8405 -10.1997 -13.1836   C.3       1 RES1   0.0000
    35 H35     -1.2470  -9.8704 -12.2284   H         1 RES1   0.0000
    36 H36      0.2317 -10.0101 -13.2065   H         1 RES1   0.0000
    37 N37     -2.5534 -11.9614 -13.3641   N.4       1 RES1   1.0000
    38 H38     -2.9542 -11.6762 -12.4762   H         1 RES1   0.0000
    39 H39     -2.7002 -12.9568 -13.4973   H         1 RES1   0.0000
    40 N40     -0.4619  -4.7249 -11.2286   N.ar      1 RES1   0.0000
    41 C41     -2.7124  -3.2288 -11.1379   C.ar      1 RES1   0.0000
    42 H42     -3.6155  -2.6280 -11.1111   H         1 RES1   0.0000
    43 N43      0.2500  -3.6161  -9.3518   N.pl3     1 RES1   0.0000
    44 H44      0.1074  -2.8771  -8.6634   H         1 RES1   0.0000
    45 C45     -2.5846  -4.1682 -12.1411   C.ar      1 RES1   0.0000
    46 H46     -3.3622  -4.3161 -12.8831   H         1 RES1   0.0000
    47 C47     -0.6941  -3.7933 -10.2898   C.ar      1 RES1   0.0000
    48 N48     -1.7846  -3.0185 -10.1952   N.ar      1 RES1   0.0000
    49 C49      1.4995  -4.3743  -9.2930   C.3       1 RES1   0.0000
    50 H50      1.3397  -5.3545  -9.7684   H         1 RES1   0.0000
    51 C51      1.9726  -4.5993  -7.8703   C.ar      1 RES1   0.0000
    52 C52      2.5431  -3.6088 -10.0980   C.3       1 RES1   0.0000
    53 H53      3.4886  -4.1468 -10.1150   H         1 RES1   0.0000
    54 H54      2.2142  -3.4693 -11.1256   H         1 RES1   0.0000
    55 H55      2.7200  -2.6275  -9.6628   H         1 RES1   0.0000
    56 C56      2.8359  -4.9990  -5.2520   C.ar      1 RES1   0.0000
    57 H57      3.1715  -5.1551  -4.2322   H         1 RES1   0.0000
    58 C58      1.7390  -3.6438  -6.8919   C.ar      1 RES1   0.0000
    59 H59      1.2142  -2.7298  -7.1499   H         1 RES1   0.0000
    60 C60      2.6488  -5.7584  -7.5151   C.ar      1 RES1   0.0000
    61 H61      2.8446  -6.5191  -8.2635   H         1 RES1   0.0000
    62 C62      3.0770  -5.9559  -6.2132   C.ar      1 RES1   0.0000
    63 H63      3.6037  -6.8670  -5.9499   H         1 RES1   0.0000
    64 C64      2.1672  -3.8432  -5.5904   C.ar      1 RES1   0.0000
    65 H65      1.9755  -3.0875  -4.8359   H         1 RES1   0.0000
@<TRIPOS>BOND
     1     1     5   ar
     2     1     6   ar
     3     1     2    1
     4     3     8   ar
     5     3     9   ar
     6     3     4    1
     7     5     9   ar
     8     5    11    1
     9     6     8   ar
    10     6     7    1
    11     8    12    1
    12     9    10    1
    13    11    20    2
    14    11    23    1
    15    13    14    1
    16    13    23   am
    17    13    24    1
    18    14    31    1
    19    14    34    1
    20    14    15    1
    21    16    24    1
    22    16    17    1
    23    16    18    1
    24    16    19    1
    25    20    21    1
    26    20    24    1
    27    21    40   ar
    28    21    45   ar
    29    22    23    2
    30    25    34    1
    31    25    37    1
    32    25    26    1
    33    25    27    1
    34    28    31    1
    35    28    37    1
    36    28    29    1
    37    28    30    1
    38    31    32    1
    39    31    33    1
    40    34    35    1
    41    34    36    1
    42    37    38    1
    43    37    39    1
    44    40    47   ar
    45    41    45   ar
    46    41    48   ar
    47    41    42    1
    48    43    47    1
    49    43    49    1
    50    43    44    1
    51    45    46    1
    52    47    48   ar
    53    49    51    1
    54    49    52    1
    55    49    50    1
    56    51    58   ar
    57    51    60   ar
    58    52    53    1
    59    52    54    1
    60    52    55    1
    61    56    62   ar
    62    56    64   ar
    63    56    57    1
    64    58    64   ar
    65    58    59    1
    66    60    62   ar
    67    60    61    1
    68    62    63    1
    69    64    65    1
@<TRIPOS>SUBSTRUCTURE
     1 RES1        1 GROUP             0 ****  ****    0  
@<TRIPOS>MOLECULE
LIGAND_00158
    65    69     1     0     0
SMALL
USER_CHARGES
****
Generated from the CSD

@<TRIPOS>ATOM
     1 C1      -0.7027  -3.3903 -14.9781   C.ar      1 RES1   0.0000
     2 H2      -1.7635  -3.4211 -14.7543   H         1 RES1   0.0000
     3 C3       2.0037  -3.2747 -15.5205   C.ar      1 RES1   0.0000
     4 H4       3.0672  -3.2194 -15.7282   H         1 RES1   0.0000
     5 C5       0.0599  -4.5461 -14.8386   C.ar      1 RES1   0.0000
     6 C6      -0.1343  -2.1985 -15.3916   C.ar      1 RES1   0.0000
     7 H7      -0.7388  -1.3050 -15.5067   H         1 RES1   0.0000
     8 C8       1.2073  -2.1727 -15.6497   C.ar      1 RES1   0.0000
     9 C9       1.4207  -4.4628 -15.1196   C.ar      1 RES1   0.0000
    10 H10      2.0424  -5.3462 -15.0278   H         1 RES1   0.0000
    11 C11     -0.5410  -5.8434 -14.3880   C.2       1 RES1   0.0000
    12 F12      1.7741  -1.0026 -16.0515   F         1 RES1   0.0000
    13 N13     -1.2406  -7.9410 -14.1570   N.am      1 RES1   0.0000
    14 C14     -1.5106  -9.4109 -14.3092   C.3       1 RES1   0.0000
    15 H15     -1.0788  -9.7376 -15.2541   H         1 RES1   0.0000
    16 C16     -2.0882  -7.8386 -11.7803   C.3       1 RES1   0.0000
    17 H17     -2.6362  -7.1178 -11.1771   H         1 RES1   0.0000
    18 H18     -2.7548  -8.6689 -12.0043   H         1 RES1   0.0000
    19 H19     -1.2602  -8.2191 -11.1860   H         1 RES1   0.0000
    20 C20     -1.1594  -5.9688 -13.1688   C.2       1 RES1   0.0000
    21 C21     -1.4160  -4.9157 -12.1531   C.ar      1 RES1   0.0000
    22 O22     -0.1808  -7.5094 -16.1020   O.2       1 RES1   0.0000
    23 C23     -0.6007  -7.1206 -15.0199   C.2       1 RES1   0.0000
    24 N24     -1.5984  -7.2184 -13.0119   N.pl3     1 RES1   0.0000
    25 C25     -1.0831 -11.6911 -13.3373   C.3       1 RES1   0.0000
    26 H26     -0.6330 -12.2197 -12.4982   H         1 RES1   0.0000
    27 H27     -0.6342 -12.0371 -14.2672   H         1 RES1   0.0000
    28 C28     -3.2435 -11.2227 -14.4622   C.3       1 RES1   0.0000
    29 H29     -2.8591 -11.5671 -15.4211   H         1 RES1   0.0000
    30 H30     -4.3132 -11.4194 -14.4081   H         1 RES1   0.0000
    31 C31     -3.0042  -9.7256 -14.3370   C.3       1 RES1   0.0000
    32 H32     -3.4589  -9.2199 -15.1874   H         1 RES1   0.0000
    33 H33     -3.4607  -9.3679 -13.4153   H         1 RES1   0.0000
    34 C34     -0.8405 -10.1997 -13.1835   C.3       1 RES1   0.0000
    35 H35     -1.2470  -9.8704 -12.2284   H         1 RES1   0.0000
    36 H36      0.2316 -10.0101 -13.2065   H         1 RES1   0.0000
    37 N37     -2.5534 -11.9614 -13.3641   N.4       1 RES1   1.0000
    38 H38     -2.9543 -11.6761 -12.4763   H         1 RES1   0.0000
    39 H39     -2.7003 -12.9568 -13.4974   H         1 RES1   0.0000
    40 N40     -2.5784  -4.2520 -12.2536   N.ar      1 RES1   0.0000
    41 C41     -0.8501  -3.6050 -10.2773   C.ar      1 RES1   0.0000
    42 H42     -0.1544  -3.3547  -9.4832   H         1 RES1   0.0000
    43 N43     -3.9628  -2.6010 -11.4687   N.pl3     1 RES1   0.0000
    44 H44     -4.5737  -2.8224 -12.2549   H         1 RES1   0.0000
    45 C45     -0.5032  -4.6139 -11.1531   C.ar      1 RES1   0.0000
    46 H46      0.4396  -5.1435 -11.0647   H         1 RES1   0.0000
    47 C47     -2.8100  -3.2801 -11.3565   C.ar      1 RES1   0.0000
    48 N48     -1.9968  -2.9172 -10.3539   N.ar      1 RES1   0.0000
    49 C49     -4.3682  -1.5202 -10.5703   C.3       1 RES1   0.0000
    50 H50     -3.8889  -1.6770  -9.5915   H         1 RES1   0.0000
    51 C51     -5.8700  -1.4683 -10.3695   C.ar      1 RES1   0.0000
    52 C52     -3.8531  -0.2120 -11.1590   C.3       1 RES1   0.0000
    53 H53     -4.0998   0.6266 -10.5112   H         1 RES1   0.0000
    54 H54     -2.7722  -0.2403 -11.2798   H         1 RES1   0.0000
    55 H55     -4.2982  -0.0283 -12.1347   H         1 RES1   0.0000
    56 C56     -8.6316  -1.3778 -10.0151   C.ar      1 RES1   0.0000
    57 H57     -9.7071  -1.3432  -9.8767   H         1 RES1   0.0000
    58 C58     -6.7301  -1.8222 -11.3991   C.ar      1 RES1   0.0000
    59 H59     -6.3220  -2.1374 -12.3537   H         1 RES1   0.0000
    60 C60     -6.4173  -1.0656  -9.1591   C.ar      1 RES1   0.0000
    61 H61     -5.7647  -0.7824  -8.3399   H         1 RES1   0.0000
    62 C62     -7.7902  -1.0214  -8.9842   C.ar      1 RES1   0.0000
    63 H63     -8.2038  -0.7053  -8.0324   H         1 RES1   0.0000
    64 C64     -8.1025  -1.7781 -11.2223   C.ar      1 RES1   0.0000
    65 H65     -8.7622  -2.0596 -12.0362   H         1 RES1   0.0000
@<TRIPOS>BOND
     1     1     5   ar
     2     1     6   ar
     3     1     2    1
     4     3     8   ar
     5     3     9   ar
     6     3     4    1
     7     5     9   ar
     8     5    11    1
     9     6     8   ar
    10     6     7    1
    11     8    12    1
    12     9    10    1
    13    11    20    2
    14    11    23    1
    15    13    14    1
    16    13    23   am
    17    13    24    1
    18    14    31    1
    19    14    34    1
    20    14    15    1
    21    16    24    1
    22    16    17    1
    23    16    18    1
    24    16    19    1
    25    20    21    1
    26    20    24    1
    27    21    40   ar
    28    21    45   ar
    29    22    23    2
    30    25    34    1
    31    25    37    1
    32    25    26    1
    33    25    27    1
    34    28    31    1
    35    28    37    1
    36    28    29    1
    37    28    30    1
    38    31    32    1
    39    31    33    1
    40    34    35    1
    41    34    36    1
    42    37    38    1
    43    37    39    1
    44    40    47   ar
    45    41    45   ar
    46    41    48   ar
    47    41    42    1
    48    43    47    1
    49    43    49    1
    50    43    44    1
    51    45    46    1
    52    47    48   ar
    53    49    51    1
    54    49    52    1
    55    49    50    1
    56    51    58   ar
    57    51    60   ar
    58    52    53    1
    59    52    54    1
    60    52    55    1
    61    56    62   ar
    62    56    64   ar
    63    56    57    1
    64    58    64   ar
    65    58    59    1
    66    60    62   ar
    67    60    61    1
    68    62    63    1
    69    64    65    1
@<TRIPOS>SUBSTRUCTURE
     1 RES1        1 GROUP             0 ****  ****    0  
@<TRIPOS>MOLECULE
LIGAND_00159
    65    69     1     0     0
SMALL
USER_CHARGES
****
Generated from the CSD

@<TRIPOS>ATOM
     1 C1      -0.3701  -3.8964 -15.9918   C.ar      1 RES1   0.0000
     2 H2      -1.1642  -4.3349 -16.5863   H         1 RES1   0.0000
     3 C3       1.6297  -2.7392 -14.4773   C.ar      1 RES1   0.0000
     4 H4       2.4102  -2.2746 -13.8839   H         1 RES1   0.0000
     5 C5       0.0599  -4.5461 -14.8386   C.ar      1 RES1   0.0000
     6 C6       0.1911  -2.6974 -16.3942   C.ar      1 RES1   0.0000
     7 H7      -0.1441  -2.2032 -17.2999   H         1 RES1   0.0000
     8 C8       1.1764  -2.1489 -15.6225   C.ar      1 RES1   0.0000
     9 C9       1.0700  -3.9440 -14.0935   C.ar      1 RES1   0.0000
    10 H10      1.4331  -4.4269 -13.1935   H         1 RES1   0.0000
    11 C11     -0.5410  -5.8434 -14.3880   C.2       1 RES1   0.0000
    12 F12      1.7291  -0.9670 -16.0092   F         1 RES1   0.0000
    13 N13     -1.2406  -7.9410 -14.1570   N.am      1 RES1   0.0000
    14 C14     -1.5106  -9.4109 -14.3092   C.3       1 RES1   0.0000
    15 H15     -1.0789  -9.7376 -15.2541   H         1 RES1   0.0000
    16 C16     -2.0882  -7.8386 -11.7803   C.3       1 RES1   0.0000
    17 H17     -2.6361  -7.1177 -11.1770   H         1 RES1   0.0000
    18 H18     -2.7550  -8.6688 -12.0043   H         1 RES1   0.0000
    19 H19     -1.2602  -8.2192 -11.1860   H         1 RES1   0.0000
    20 C20     -1.1594  -5.9688 -13.1688   C.2       1 RES1   0.0000
    21 C21     -1.4160  -4.9157 -12.1531   C.ar      1 RES1   0.0000
    22 O22     -0.1808  -7.5094 -16.1020   O.2       1 RES1   0.0000
    23 C23     -0.6007  -7.1206 -15.0199   C.2       1 RES1   0.0000
    24 N24     -1.5984  -7.2184 -13.0119   N.pl3     1 RES1   0.0000
    25 C25     -1.0831 -11.6911 -13.3373   C.3       1 RES1   0.0000
    26 H26     -0.6329 -12.2197 -12.4983   H         1 RES1   0.0000
    27 H27     -0.6342 -12.0371 -14.2672   H         1 RES1   0.0000
    28 C28     -3.2434 -11.2227 -14.4622   C.3       1 RES1   0.0000
    29 H29     -2.8591 -11.5671 -15.4211   H         1 RES1   0.0000
    30 H30     -4.3132 -11.4194 -14.4080   H         1 RES1   0.0000
    31 C31     -3.0042  -9.7256 -14.3369   C.3       1 RES1   0.0000
    32 H32     -3.4590  -9.2199 -15.1874   H         1 RES1   0.0000
    33 H33     -3.4607  -9.3679 -13.4152   H         1 RES1   0.0000
    34 C34     -0.8405 -10.1997 -13.1836   C.3       1 RES1   0.0000
    35 H35     -1.2470  -9.8704 -12.2284   H         1 RES1   0.0000
    36 H36      0.2317 -10.0101 -13.2065   H         1 RES1   0.0000
    37 N37     -2.5534 -11.9614 -13.3641   N.4       1 RES1   1.0000
    38 H38     -2.9542 -11.6762 -12.4762   H         1 RES1   0.0000
    39 H39     -2.7002 -12.9568 -13.4973   H         1 RES1   0.0000
    40 N40     -2.5784  -4.2520 -12.2536   N.ar      1 RES1   0.0000
    41 C41     -0.8501  -3.6050 -10.2773   C.ar      1 RES1   0.0000
    42 H42     -0.1544  -3.3547  -9.4832   H         1 RES1   0.0000
    43 N43     -3.9628  -2.6010 -11.4687   N.pl3     1 RES1   0.0000
    44 H44     -4.1724  -1.8948 -10.7633   H         1 RES1   0.0000
    45 C45     -0.5032  -4.6139 -11.1531   C.ar      1 RES1   0.0000
    46 H46      0.4396  -5.1435 -11.0647   H         1 RES1   0.0000
    47 C47     -2.8100  -3.2801 -11.3565   C.ar      1 RES1   0.0000
    48 N48     -1.9968  -2.9172 -10.3539   N.ar      1 RES1   0.0000
    49 C49     -4.9659  -2.8541 -12.5028   C.3       1 RES1   0.0000
    50 H50     -4.4632  -3.2810 -13.3845   H         1 RES1   0.0000
    51 C51     -5.6917  -1.5918 -12.9251   C.ar      1 RES1   0.0000
    52 C52     -5.9446  -3.8862 -11.9549   C.3       1 RES1   0.0000
    53 H53     -6.6978  -4.1371 -12.6988   H         1 RES1   0.0000
    54 H54     -5.4266  -4.8011 -11.6751   H         1 RES1   0.0000
    55 H55     -6.4541  -3.5024 -11.0735   H         1 RES1   0.0000
    56 C56     -7.0242   0.7331 -13.6866   C.ar      1 RES1   0.0000
    57 H57     -7.5425   1.6388 -13.9835   H         1 RES1   0.0000
    58 C58     -5.9373  -0.5810 -12.0070   C.ar      1 RES1   0.0000
    59 H59     -5.6068  -0.6978 -10.9802   H         1 RES1   0.0000
    60 C60     -6.1275  -1.4192 -14.2317   C.ar      1 RES1   0.0000
    61 H61     -5.9485  -2.1967 -14.9669   H         1 RES1   0.0000
    62 C62     -6.7894  -0.2629 -14.6088   C.ar      1 RES1   0.0000
    63 H63     -7.1237  -0.1415 -15.6338   H         1 RES1   0.0000
    64 C64     -6.5986   0.5748 -12.3861   C.ar      1 RES1   0.0000
    65 H65     -6.7817   1.3573 -11.6571   H         1 RES1   0.0000
@<TRIPOS>BOND
     1     1     5   ar
     2     1     6   ar
     3     1     2    1
     4     3     8   ar
     5     3     9   ar
     6     3     4    1
     7     5     9   ar
     8     5    11    1
     9     6     8   ar
    10     6     7    1
    11     8    12    1
    12     9    10    1
    13    11    20    2
    14    11    23    1
    15    13    14    1
    16    13    23   am
    17    13    24    1
    18    14    31    1
    19    14    34    1
    20    14    15    1
    21    16    24    1
    22    16    17    1
    23    16    18    1
    24    16    19    1
    25    20    21    1
    26    20    24    1
    27    21    40   ar
    28    21    45   ar
    29    22    23    2
    30    25    34    1
    31    25    37    1
    32    25    26    1
    33    25    27    1
    34    28    31    1
    35    28    37    1
    36    28    29    1
    37    28    30    1
    38    31    32    1
    39    31    33    1
    40    34    35    1
    41    34    36    1
    42    37    38    1
    43    37    39    1
    44    40    47   ar
    45    41    45   ar
    46    41    48   ar
    47    41    42    1
    48    43    47    1
    49    43    49    1
    50    43    44    1
    51    45    46    1
    52    47    48   ar
    53    49    51    1
    54    49    52    1
    55    49    50    1
    56    51    58   ar
    57    51    60   ar
    58    52    53    1
    59    52    54    1
    60    52    55    1
    61    56    62   ar
    62    56    64   ar
    63    56    57    1
    64    58    64   ar
    65    58    59    1
    66    60    62   ar
    67    60    61    1
    68    62    63    1
    69    64    65    1
@<TRIPOS>SUBSTRUCTURE
     1 RES1        1 GROUP             0 ****  ****    0  
@<TRIPOS>MOLECULE
LIGAND_00160
    65    69     1     0     0
SMALL
USER_CHARGES
****
Generated from the CSD

@<TRIPOS>ATOM
     1 C1      -0.7027  -3.3903 -14.9781   C.ar      1 RES1   0.0000
     2 H2      -1.7635  -3.4211 -14.7543   H         1 RES1   0.0000
     3 C3       2.0037  -3.2747 -15.5205   C.ar      1 RES1   0.0000
     4 H4       3.0672  -3.2194 -15.7282   H         1 RES1   0.0000
     5 C5       0.0599  -4.5461 -14.8386   C.ar      1 RES1   0.0000
     6 C6      -0.1343  -2.1985 -15.3916   C.ar      1 RES1   0.0000
     7 H7      -0.7388  -1.3050 -15.5067   H         1 RES1   0.0000
     8 C8       1.2073  -2.1727 -15.6497   C.ar      1 RES1   0.0000
     9 C9       1.4207  -4.4628 -15.1196   C.ar      1 RES1   0.0000
    10 H10      2.0424  -5.3462 -15.0278   H         1 RES1   0.0000
    11 C11     -0.5410  -5.8434 -14.3880   C.2       1 RES1   0.0000
    12 F12      1.7741  -1.0026 -16.0515   F         1 RES1   0.0000
    13 N13     -1.2406  -7.9410 -14.1570   N.am      1 RES1   0.0000
    14 C14     -1.5106  -9.4109 -14.3092   C.3       1 RES1   0.0000
    15 H15     -1.0789  -9.7376 -15.2541   H         1 RES1   0.0000
    16 C16     -2.0882  -7.8386 -11.7803   C.3       1 RES1   0.0000
    17 H17     -2.6361  -7.1177 -11.1770   H         1 RES1   0.0000
    18 H18     -2.7550  -8.6688 -12.0043   H         1 RES1   0.0000
    19 H19     -1.2602  -8.2192 -11.1860   H         1 RES1   0.0000
    20 C20     -1.1594  -5.9688 -13.1688   C.2       1 RES1   0.0000
    21 C21     -1.4160  -4.9157 -12.1531   C.ar      1 RES1   0.0000
    22 O22     -0.1808  -7.5094 -16.1020   O.2       1 RES1   0.0000
    23 C23     -0.6007  -7.1206 -15.0199   C.2       1 RES1   0.0000
    24 N24     -1.5984  -7.2184 -13.0119   N.pl3     1 RES1   0.0000
    25 C25     -1.0831 -11.6911 -13.3373   C.3       1 RES1   0.0000
    26 H26     -0.6329 -12.2197 -12.4983   H         1 RES1   0.0000
    27 H27     -0.6342 -12.0371 -14.2672   H         1 RES1   0.0000
    28 C28     -3.2434 -11.2227 -14.4622   C.3       1 RES1   0.0000
    29 H29     -2.8591 -11.5671 -15.4211   H         1 RES1   0.0000
    30 H30     -4.3132 -11.4194 -14.4080   H         1 RES1   0.0000
    31 C31     -3.0042  -9.7256 -14.3369   C.3       1 RES1   0.0000
    32 H32     -3.4590  -9.2199 -15.1874   H         1 RES1   0.0000
    33 H33     -3.4607  -9.3679 -13.4152   H         1 RES1   0.0000
    34 C34     -0.8405 -10.1997 -13.1836   C.3       1 RES1   0.0000
    35 H35     -1.2470  -9.8704 -12.2284   H         1 RES1   0.0000
    36 H36      0.2317 -10.0101 -13.2065   H         1 RES1   0.0000
    37 N37     -2.5534 -11.9614 -13.3641   N.4       1 RES1   1.0000
    38 H38     -2.9542 -11.6762 -12.4762   H         1 RES1   0.0000
    39 H39     -2.7002 -12.9568 -13.4973   H         1 RES1   0.0000
    40 N40     -2.5784  -4.2520 -12.2536   N.ar      1 RES1   0.0000
    41 C41     -0.8501  -3.6050 -10.2773   C.ar      1 RES1   0.0000
    42 H42     -0.1544  -3.3547  -9.4832   H         1 RES1   0.0000
    43 N43     -3.9628  -2.6010 -11.4687   N.pl3     1 RES1   0.0000
    44 H44     -4.1724  -1.8948 -10.7633   H         1 RES1   0.0000
    45 C45     -0.5032  -4.6139 -11.1531   C.ar      1 RES1   0.0000
    46 H46      0.4396  -5.1435 -11.0647   H         1 RES1   0.0000
    47 C47     -2.8100  -3.2801 -11.3565   C.ar      1 RES1   0.0000
    48 N48     -1.9968  -2.9172 -10.3539   N.ar      1 RES1   0.0000
    49 C49     -4.9659  -2.8541 -12.5028   C.3       1 RES1   0.0000
    50 H50     -4.4632  -3.2810 -13.3845   H         1 RES1   0.0000
    51 C51     -5.6917  -1.5918 -12.9251   C.ar      1 RES1   0.0000
    52 C52     -5.9446  -3.8862 -11.9549   C.3       1 RES1   0.0000
    53 H53     -6.6978  -4.1371 -12.6988   H         1 RES1   0.0000
    54 H54     -5.4266  -4.8011 -11.6751   H         1 RES1   0.0000
    55 H55     -6.4541  -3.5024 -11.0735   H         1 RES1   0.0000
    56 C56     -7.0242   0.7331 -13.6866   C.ar      1 RES1   0.0000
    57 H57     -7.5425   1.6388 -13.9835   H         1 RES1   0.0000
    58 C58     -5.9373  -0.5810 -12.0070   C.ar      1 RES1   0.0000
    59 H59     -5.6068  -0.6978 -10.9802   H         1 RES1   0.0000
    60 C60     -6.1275  -1.4192 -14.2317   C.ar      1 RES1   0.0000
    61 H61     -5.9485  -2.1967 -14.9669   H         1 RES1   0.0000
    62 C62     -6.7894  -0.2629 -14.6088   C.ar      1 RES1   0.0000
    63 H63     -7.1237  -0.1415 -15.6338   H         1 RES1   0.0000
    64 C64     -6.5986   0.5748 -12.3861   C.ar      1 RES1   0.0000
    65 H65     -6.7817   1.3573 -11.6571   H         1 RES1   0.0000
@<TRIPOS>BOND
     1     1     5   ar
     2     1     6   ar
     3     1     2    1
     4     3     8   ar
     5     3     9   ar
     6     3     4    1
     7     5     9   ar
     8     5    11    1
     9     6     8   ar
    10     6     7    1
    11     8    12    1
    12     9    10    1
    13    11    20    2
    14    11    23    1
    15    13    14    1
    16    13    23   am
    17    13    24    1
    18    14    31    1
    19    14    34    1
    20    14    15    1
    21    16    24    1
    22    16    17    1
    23    16    18    1
    24    16    19    1
    25    20    21    1
    26    20    24    1
    27    21    40   ar
    28    21    45   ar
    29    22    23    2
    30    25    34    1
    31    25    37    1
    32    25    26    1
    33    25    27    1
    34    28    31    1
    35    28    37    1
    36    28    29    1
    37    28    30    1
    38    31    32    1
    39    31    33    1
    40    34    35    1
    41    34    36    1
    42    37    38    1
    43    37    39    1
    44    40    47   ar
    45    41    45   ar
    46    41    48   ar
    47    41    42    1
    48    43    47    1
    49    43    49    1
    50    43    44    1
    51    45    46    1
    52    47    48   ar
    53    49    51    1
    54    49    52    1
    55    49    50    1
    56    51    58   ar
    57    51    60   ar
    58    52    53    1
    59    52    54    1
    60    52    55    1
    61    56    62   ar
    62    56    64   ar
    63    56    57    1
    64    58    64   ar
    65    58    59    1
    66    60    62   ar
    67    60    61    1
    68    62    63    1
    69    64    65    1
@<TRIPOS>SUBSTRUCTURE
     1 RES1        1 GROUP             0 ****  ****    0  
@<TRIPOS>MOLECULE
LIGAND_00161
    65    69     1     0     0
SMALL
USER_CHARGES
****
Generated from the CSD

@<TRIPOS>ATOM
     1 C1       0.1397  -3.4573 -14.2616   C.ar      1 RES1   0.0000
     2 H2      -0.8803  -3.3172 -13.9205   H         1 RES1   0.0000
     3 C3       2.7523  -3.7844 -15.0977   C.ar      1 RES1   0.0000
     4 H4       3.7816  -3.9045 -15.4193   H         1 RES1   0.0000
     5 C5       0.6399  -4.7473 -14.4120   C.ar      1 RES1   0.0000
     6 C6       0.9192  -2.3468 -14.5330   C.ar      1 RES1   0.0000
     7 H7       0.5174  -1.3453 -14.4221   H         1 RES1   0.0000
     8 C8       2.2084  -2.5413 -14.9423   C.ar      1 RES1   0.0000
     9 C9       1.9584  -4.8860 -14.8363   C.ar      1 RES1   0.0000
    10 H10      2.3773  -5.8769 -14.9703   H         1 RES1   0.0000
    11 C11     -0.1912  -5.9598 -14.1182   C.2       1 RES1   0.0000
    12 F12      2.9826  -1.4536 -15.2058   F         1 RES1   0.0000
    13 N13     -1.2729  -7.9152 -14.1968   N.am      1 RES1   0.0000
    14 C14     -1.6005  -9.3688 -14.3871   C.3       1 RES1   0.0000
    15 H15     -1.0131  -9.7406 -15.2253   H         1 RES1   0.0000
    16 C16     -3.0567  -7.4189 -12.5912   C.3       1 RES1   0.0000
    17 H17     -3.3148  -6.6909 -11.8249   H         1 RES1   0.0000
    18 H18     -3.7518  -7.2993 -13.4196   H         1 RES1   0.0000
    19 H19     -3.1940  -8.4143 -12.1740   H         1 RES1   0.0000
    20 C20     -1.0688  -6.0097 -13.0848   C.2       1 RES1   0.0000
    21 C21     -1.4087  -4.9383 -12.1137   C.ar      1 RES1   0.0000
    22 O22      0.3403  -7.6176 -15.8188   O.2       1 RES1   0.0000
    23 C23     -0.2805  -7.1979 -14.8510   C.2       1 RES1   0.0000
    24 N24     -1.6763  -7.2323 -13.0397   N.3       1 RES1   0.0000
    25 C25     -1.5183 -11.6502 -13.3310   C.3       1 RES1   0.0000
    26 H26     -1.2764 -12.1876 -12.4152   H         1 RES1   0.0000
    27 H27     -0.9183 -12.0419 -14.1510   H         1 RES1   0.0000
    28 C28     -3.3811 -11.0750 -14.8643   C.3       1 RES1   0.0000
    29 H29     -2.8383 -11.4618 -15.7256   H         1 RES1   0.0000
    30 H30     -4.4508 -11.2052 -15.0210   H         1 RES1   0.0000
    31 C31     -3.0764  -9.5929 -14.7067   C.3       1 RES1   0.0000
    32 H32     -3.3220  -9.0782 -15.6345   H         1 RES1   0.0000
    33 H33     -3.6816  -9.1891 -13.8964   H         1 RES1   0.0000
    34 C34     -1.2164 -10.1734 -13.1448   C.3       1 RES1   0.0000
    35 H35     -1.7810  -9.8004 -12.2915   H         1 RES1   0.0000
    36 H36     -0.1509 -10.0497 -12.9570   H         1 RES1   0.0000
    37 N37     -2.9688 -11.8313 -13.6455   N.4       1 RES1   1.0000
    38 H38     -3.5174 -11.5039 -12.8567   H         1 RES1   0.0000
    39 H39     -3.1495 -12.8185 -13.7968   H         1 RES1   0.0000
    40 N40     -0.6191  -4.8314 -11.0335   N.ar      1 RES1   0.0000
    41 C41     -2.7138  -3.1449 -11.3153   C.ar      1 RES1   0.0000
    42 H42     -3.5526  -2.4677 -11.4379   H         1 RES1   0.0000
    43 N43     -0.1558  -3.7890  -9.0443   N.pl3     1 RES1   0.0000
    44 H44      0.5867  -4.4780  -8.9246   H         1 RES1   0.0000
    45 C45     -2.4926  -4.0918 -12.2950   C.ar      1 RES1   0.0000
    46 H46     -3.1376  -4.1714 -13.1639   H         1 RES1   0.0000
    47 C47     -0.9320  -3.8832 -10.1357   C.ar      1 RES1   0.0000
    48 N48     -1.9515  -3.0164 -10.2217   N.ar      1 RES1   0.0000
    49 C49     -0.3479  -2.7989  -7.9849   C.3       1 RES1   0.0000
    50 H50     -1.3443  -2.9470  -7.5405   H         1 RES1   0.0000
    51 C51     -0.2558  -1.3760  -8.5000   C.ar      1 RES1   0.0000
    52 C52      0.7048  -3.0580  -6.9135   C.3       1 RES1   0.0000
    53 H53      0.5874  -2.3668  -6.0815   H         1 RES1   0.0000
    54 H54      0.6224  -4.0714  -6.5262   H         1 RES1   0.0000
    55 H55      1.7060  -2.9312  -7.3200   H         1 RES1   0.0000
    56 C56     -0.0721   1.2358  -9.4515   C.ar      1 RES1   0.0000
    57 H57     -0.0009   2.2528  -9.8226   H         1 RES1   0.0000
    58 C58      0.9060  -0.9215  -9.1072   C.ar      1 RES1   0.0000
    59 H59      1.7532  -1.5912  -9.2121   H         1 RES1   0.0000
    60 C60     -1.3241  -0.4985  -8.3753   C.ar      1 RES1   0.0000
    61 H61     -2.2423  -0.8308  -7.9025   H         1 RES1   0.0000
    62 C62     -1.2315   0.7993  -8.8490   C.ar      1 RES1   0.0000
    63 H63     -2.0748   1.4739  -8.7452   H         1 RES1   0.0000
    64 C64      0.9966   0.3763  -9.5809   C.ar      1 RES1   0.0000
    65 H65      1.9112   0.7167 -10.0550   H         1 RES1   0.0000
@<TRIPOS>BOND
     1     1     5   ar
     2     1     6   ar
     3     1     2    1
     4     3     8   ar
     5     3     9   ar
     6     3     4    1
     7     5     9   ar
     8     5    11    1
     9     6     8   ar
    10     6     7    1
    11     8    12    1
    12     9    10    1
    13    11    20    2
    14    11    23    1
    15    13    14    1
    16    13    23   am
    17    13    24    1
    18    14    31    1
    19    14    34    1
    20    14    15    1
    21    16    24    1
    22    16    17    1
    23    16    18    1
    24    16    19    1
    25    20    21    1
    26    20    24    1
    27    21    40   ar
    28    21    45   ar
    29    22    23    2
    30    25    34    1
    31    25    37    1
    32    25    26    1
    33    25    27    1
    34    28    31    1
    35    28    37    1
    36    28    29    1
    37    28    30    1
    38    31    32    1
    39    31    33    1
    40    34    35    1
    41    34    36    1
    42    37    38    1
    43    37    39    1
    44    40    47   ar
    45    41    45   ar
    46    41    48   ar
    47    41    42    1
    48    43    47    1
    49    43    49    1
    50    43    44    1
    51    45    46    1
    52    47    48   ar
    53    49    51    1
    54    49    52    1
    55    49    50    1
    56    51    58   ar
    57    51    60   ar
    58    52    53    1
    59    52    54    1
    60    52    55    1
    61    56    62   ar
    62    56    64   ar
    63    56    57    1
    64    58    64   ar
    65    58    59    1
    66    60    62   ar
    67    60    61    1
    68    62    63    1
    69    64    65    1
@<TRIPOS>SUBSTRUCTURE
     1 RES1        1 GROUP             0 ****  ****    0  
@<TRIPOS>MOLECULE
LIGAND_00162
    65    69     1     0     0
SMALL
USER_CHARGES
****
Generated from the CSD

@<TRIPOS>ATOM
     1 C1      -0.6994  -4.2982 -11.5265   C.ar      1 RES1   0.0000
     2 H2      -0.1323  -5.0965 -11.0599   H         1 RES1   0.0000
     3 C3      -2.1079  -2.2360 -12.7076   C.ar      1 RES1   0.0000
     4 H4      -2.6530  -1.4188 -13.1683   H         1 RES1   0.0000
     5 C5      -1.2881  -4.5128 -12.7691   C.ar      1 RES1   0.0000
     6 C6      -0.8173  -3.0836 -10.8742   C.ar      1 RES1   0.0000
     7 H7      -0.3629  -2.9290  -9.9013   H         1 RES1   0.0000
     8 C8      -1.5180  -2.0824 -11.4854   C.ar      1 RES1   0.0000
     9 C9      -1.9941  -3.4590 -13.3427   C.ar      1 RES1   0.0000
    10 H10     -2.4708  -3.5947 -14.3068   H         1 RES1   0.0000
    11 C11     -1.1659  -5.8217 -13.4895   C.2       1 RES1   0.0000
    12 F12     -1.6334  -0.8834 -10.8522   F         1 RES1   0.0000
    13 N13     -1.2406  -7.9410 -14.1570   N.am      1 RES1   0.0000
    14 C14     -1.5106  -9.4109 -14.3092   C.3       1 RES1   0.0000
    15 H15     -1.1035  -9.7318 -15.2670   H         1 RES1   0.0000
    16 C16     -0.3252  -7.6743 -16.4955   C.3       1 RES1   0.0000
    17 H17     -0.2978  -6.8543 -17.2102   H         1 RES1   0.0000
    18 H18      0.6368  -8.1816 -16.5253   H         1 RES1   0.0000
    19 H19     -1.0903  -8.3784 -16.8158   H         1 RES1   0.0000
    20 C20     -0.5870  -5.9122 -14.7311   C.2       1 RES1   0.0000
    21 C21      0.0604  -4.8376 -15.5265   C.ar      1 RES1   0.0000
    22 O22     -2.1510  -7.5590 -12.1278   O.2       1 RES1   0.0000
    23 C23     -1.5821  -7.1365 -13.1259   C.2       1 RES1   0.0000
    24 N24     -0.6101  -7.1788 -15.1485   N.pl3     1 RES1   0.0000
    25 C25     -1.0509 -11.6946 -13.3605   C.3       1 RES1   0.0000
    26 H26     -0.5769 -12.2260 -12.5365   H         1 RES1   0.0000
    27 H27     -0.6263 -12.0348 -14.3038   H         1 RES1   0.0000
    28 C28     -3.2420 -11.2269 -14.4245   C.3       1 RES1   0.0000
    29 H29     -2.8826 -11.5654 -15.3952   H         1 RES1   0.0000
    30 H30     -4.3093 -11.4269 -14.3427   H         1 RES1   0.0000
    31 C31     -3.0035  -9.7297 -14.2983   C.3       1 RES1   0.0000
    32 H32     -3.4824  -9.2211 -15.1338   H         1 RES1   0.0000
    33 H33     -3.4360  -9.3778 -13.3629   H         1 RES1   0.0000
    34 C34     -0.8083 -10.2033 -13.2059   C.3       1 RES1   0.0000
    35 H35     -1.1899  -9.8799 -12.2386   H         1 RES1   0.0000
    36 H36      0.2623 -10.0106 -13.2567   H         1 RES1   0.0000
    37 N37     -2.5207 -11.9690 -13.3491   N.4       1 RES1   1.0000
    38 H38     -2.8983 -11.6892 -12.4494   H         1 RES1   0.0000
    39 H39     -2.6684 -12.9641 -13.4833   H         1 RES1   0.0000
    40 N40     -0.7315  -4.1442 -16.3595   N.ar      1 RES1   0.0000
    41 C41      1.9032  -3.5489 -16.2337   C.ar      1 RES1   0.0000
    42 H42      2.9602  -3.3115 -16.1736   H         1 RES1   0.0000
    43 N43     -0.9391  -2.5074 -17.9520   N.pl3     1 RES1   0.0000
    44 H44     -0.5200  -1.7472 -18.4875   H         1 RES1   0.0000
    45 C45      1.4167  -4.5622 -15.4325   C.ar      1 RES1   0.0000
    46 H46      2.0651  -5.1182 -14.7635   H         1 RES1   0.0000
    47 C47     -0.1524  -3.1875 -17.1028   C.ar      1 RES1   0.0000
    48 N48      1.1435  -2.8434 -17.0815   N.ar      1 RES1   0.0000
    49 C49     -2.3733  -2.7469 -18.1111   C.3       1 RES1   0.0000
    50 H50     -2.7878  -3.0620 -17.1410   H         1 RES1   0.0000
    51 C51     -2.6691  -3.8249 -19.1354   C.ar      1 RES1   0.0000
    52 C52     -3.0212  -1.4262 -18.5098   C.3       1 RES1   0.0000
    53 H53     -4.0986  -1.5394 -18.6107   H         1 RES1   0.0000
    54 H54     -2.8297  -0.6593 -17.7622   H         1 RES1   0.0000
    55 H55     -2.6270  -1.0769 -19.4619   H         1 RES1   0.0000
    56 C56     -3.2053  -5.7971 -21.0283   C.ar      1 RES1   0.0000
    57 H57     -3.4136  -6.5657 -21.7652   H         1 RES1   0.0000
    58 C58     -2.2576  -3.6761 -20.4520   C.ar      1 RES1   0.0000
    59 H59     -1.7210  -2.7807 -20.7478   H         1 RES1   0.0000
    60 C60     -3.3565  -4.9783 -18.7833   C.ar      1 RES1   0.0000
    61 H61     -3.6899  -5.1160 -17.7600   H         1 RES1   0.0000
    62 C62     -3.6220  -5.9579 -19.7251   C.ar      1 RES1   0.0000
    63 H63     -4.1598  -6.8545 -19.4354   H         1 RES1   0.0000
    64 C64     -2.5233  -4.6570 -21.3923   C.ar      1 RES1   0.0000
    65 H65     -2.1935  -4.5272 -22.4176   H         1 RES1   0.0000
@<TRIPOS>BOND
     1     1     5   ar
     2     1     6   ar
     3     1     2    1
     4     3     8   ar
     5     3     9   ar
     6     3     4    1
     7     5     9   ar
     8     5    11    1
     9     6     8   ar
    10     6     7    1
    11     8    12    1
    12     9    10    1
    13    11    20    2
    14    11    23    1
    15    13    14    1
    16    13    23   am
    17    13    24    1
    18    14    31    1
    19    14    34    1
    20    14    15    1
    21    16    24    1
    22    16    17    1
    23    16    18    1
    24    16    19    1
    25    20    21    1
    26    20    24    1
    27    21    40   ar
    28    21    45   ar
    29    22    23    2
    30    25    34    1
    31    25    37    1
    32    25    26    1
    33    25    27    1
    34    28    31    1
    35    28    37    1
    36    28    29    1
    37    28    30    1
    38    31    32    1
    39    31    33    1
    40    34    35    1
    41    34    36    1
    42    37    38    1
    43    37    39    1
    44    40    47   ar
    45    41    45   ar
    46    41    48   ar
    47    41    42    1
    48    43    47    1
    49    43    49    1
    50    43    44    1
    51    45    46    1
    52    47    48   ar
    53    49    51    1
    54    49    52    1
    55    49    50    1
    56    51    58   ar
    57    51    60   ar
    58    52    53    1
    59    52    54    1
    60    52    55    1
    61    56    62   ar
    62    56    64   ar
    63    56    57    1
    64    58    64   ar
    65    58    59    1
    66    60    62   ar
    67    60    61    1
    68    62    63    1
    69    64    65    1
@<TRIPOS>SUBSTRUCTURE
     1 RES1        1 GROUP             0 ****  ****    0  
@<TRIPOS>MOLECULE
LIGAND_00163
    65    69     1     0     0
SMALL
USER_CHARGES
****
Generated from the CSD

@<TRIPOS>ATOM
     1 C1      -0.1734  -3.7512 -12.4311   C.ar      1 RES1   0.0000
     2 H2       0.8163  -4.1080 -12.6950   H         1 RES1   0.0000
     3 C3      -2.6840  -2.8012 -11.7784   C.ar      1 RES1   0.0000
     4 H4      -3.6669  -2.4178 -11.5253   H         1 RES1   0.0000
     5 C5      -1.2881  -4.5128 -12.7691   C.ar      1 RES1   0.0000
     6 C6      -0.3010  -2.5429 -11.7691   C.ar      1 RES1   0.0000
     7 H7       0.5745  -1.9608 -11.5013   H         1 RES1   0.0000
     8 C8      -1.5563  -2.0986 -11.4624   C.ar      1 RES1   0.0000
     9 C9      -2.5420  -4.0138 -12.4278   C.ar      1 RES1   0.0000
    10 H10     -3.4308  -4.5851 -12.6702   H         1 RES1   0.0000
    11 C11     -1.1659  -5.8217 -13.4895   C.2       1 RES1   0.0000
    12 F12     -1.6896  -0.9084 -10.8162   F         1 RES1   0.0000
    13 N13     -1.2406  -7.9410 -14.1570   N.am      1 RES1   0.0000
    14 C14     -1.5106  -9.4109 -14.3092   C.3       1 RES1   0.0000
    15 H15     -1.1035  -9.7318 -15.2670   H         1 RES1   0.0000
    16 C16     -0.3252  -7.6743 -16.4955   C.3       1 RES1   0.0000
    17 H17     -0.2978  -6.8543 -17.2102   H         1 RES1   0.0000
    18 H18      0.6368  -8.1816 -16.5253   H         1 RES1   0.0000
    19 H19     -1.0903  -8.3784 -16.8158   H         1 RES1   0.0000
    20 C20     -0.5870  -5.9122 -14.7311   C.2       1 RES1   0.0000
    21 C21      0.0604  -4.8376 -15.5265   C.ar      1 RES1   0.0000
    22 O22     -2.1510  -7.5590 -12.1278   O.2       1 RES1   0.0000
    23 C23     -1.5821  -7.1365 -13.1259   C.2       1 RES1   0.0000
    24 N24     -0.6101  -7.1788 -15.1485   N.pl3     1 RES1   0.0000
    25 C25     -1.0509 -11.6946 -13.3605   C.3       1 RES1   0.0000
    26 H26     -0.5769 -12.2260 -12.5365   H         1 RES1   0.0000
    27 H27     -0.6263 -12.0348 -14.3038   H         1 RES1   0.0000
    28 C28     -3.2420 -11.2269 -14.4245   C.3       1 RES1   0.0000
    29 H29     -2.8826 -11.5654 -15.3952   H         1 RES1   0.0000
    30 H30     -4.3093 -11.4269 -14.3427   H         1 RES1   0.0000
    31 C31     -3.0035  -9.7297 -14.2983   C.3       1 RES1   0.0000
    32 H32     -3.4824  -9.2211 -15.1338   H         1 RES1   0.0000
    33 H33     -3.4360  -9.3778 -13.3629   H         1 RES1   0.0000
    34 C34     -0.8083 -10.2033 -13.2059   C.3       1 RES1   0.0000
    35 H35     -1.1899  -9.8799 -12.2386   H         1 RES1   0.0000
    36 H36      0.2623 -10.0106 -13.2567   H         1 RES1   0.0000
    37 N37     -2.5207 -11.9690 -13.3491   N.4       1 RES1   1.0000
    38 H38     -2.8983 -11.6892 -12.4494   H         1 RES1   0.0000
    39 H39     -2.6684 -12.9641 -13.4833   H         1 RES1   0.0000
    40 N40     -0.7315  -4.1442 -16.3595   N.ar      1 RES1   0.0000
    41 C41      1.9032  -3.5489 -16.2337   C.ar      1 RES1   0.0000
    42 H42      2.9602  -3.3115 -16.1736   H         1 RES1   0.0000
    43 N43     -0.9391  -2.5074 -17.9520   N.pl3     1 RES1   0.0000
    44 H44     -0.5200  -1.7472 -18.4875   H         1 RES1   0.0000
    45 C45      1.4167  -4.5622 -15.4325   C.ar      1 RES1   0.0000
    46 H46      2.0651  -5.1182 -14.7635   H         1 RES1   0.0000
    47 C47     -0.1524  -3.1875 -17.1028   C.ar      1 RES1   0.0000
    48 N48      1.1435  -2.8434 -17.0815   N.ar      1 RES1   0.0000
    49 C49     -2.3733  -2.7469 -18.1111   C.3       1 RES1   0.0000
    50 H50     -2.7878  -3.0620 -17.1410   H         1 RES1   0.0000
    51 C51     -2.6691  -3.8249 -19.1354   C.ar      1 RES1   0.0000
    52 C52     -3.0212  -1.4262 -18.5098   C.3       1 RES1   0.0000
    53 H53     -4.0986  -1.5394 -18.6107   H         1 RES1   0.0000
    54 H54     -2.8297  -0.6593 -17.7622   H         1 RES1   0.0000
    55 H55     -2.6270  -1.0769 -19.4619   H         1 RES1   0.0000
    56 C56     -3.2053  -5.7971 -21.0283   C.ar      1 RES1   0.0000
    57 H57     -3.4136  -6.5657 -21.7652   H         1 RES1   0.0000
    58 C58     -2.2576  -3.6761 -20.4520   C.ar      1 RES1   0.0000
    59 H59     -1.7210  -2.7807 -20.7478   H         1 RES1   0.0000
    60 C60     -3.3565  -4.9783 -18.7833   C.ar      1 RES1   0.0000
    61 H61     -3.6899  -5.1160 -17.7600   H         1 RES1   0.0000
    62 C62     -3.6220  -5.9579 -19.7251   C.ar      1 RES1   0.0000
    63 H63     -4.1598  -6.8545 -19.4354   H         1 RES1   0.0000
    64 C64     -2.5233  -4.6570 -21.3923   C.ar      1 RES1   0.0000
    65 H65     -2.1935  -4.5272 -22.4176   H         1 RES1   0.0000
@<TRIPOS>BOND
     1     1     5   ar
     2     1     6   ar
     3     1     2    1
     4     3     8   ar
     5     3     9   ar
     6     3     4    1
     7     5     9   ar
     8     5    11    1
     9     6     8   ar
    10     6     7    1
    11     8    12    1
    12     9    10    1
    13    11    20    2
    14    11    23    1
    15    13    14    1
    16    13    23   am
    17    13    24    1
    18    14    31    1
    19    14    34    1
    20    14    15    1
    21    16    24    1
    22    16    17    1
    23    16    18    1
    24    16    19    1
    25    20    21    1
    26    20    24    1
    27    21    40   ar
    28    21    45   ar
    29    22    23    2
    30    25    34    1
    31    25    37    1
    32    25    26    1
    33    25    27    1
    34    28    31    1
    35    28    37    1
    36    28    29    1
    37    28    30    1
    38    31    32    1
    39    31    33    1
    40    34    35    1
    41    34    36    1
    42    37    38    1
    43    37    39    1
    44    40    47   ar
    45    41    45   ar
    46    41    48   ar
    47    41    42    1
    48    43    47    1
    49    43    49    1
    50    43    44    1
    51    45    46    1
    52    47    48   ar
    53    49    51    1
    54    49    52    1
    55    49    50    1
    56    51    58   ar
    57    51    60   ar
    58    52    53    1
    59    52    54    1
    60    52    55    1
    61    56    62   ar
    62    56    64   ar
    63    56    57    1
    64    58    64   ar
    65    58    59    1
    66    60    62   ar
    67    60    61    1
    68    62    63    1
    69    64    65    1
@<TRIPOS>SUBSTRUCTURE
     1 RES1        1 GROUP             0 ****  ****    0  
@<TRIPOS>MOLECULE
LIGAND_00164
    65    69     1     0     0
SMALL
USER_CHARGES
****
Generated from the CSD

@<TRIPOS>ATOM
     1 C1      -0.6994  -4.2982 -11.5265   C.ar      1 RES1   0.0000
     2 H2      -0.1323  -5.0965 -11.0599   H         1 RES1   0.0000
     3 C3      -2.1079  -2.2360 -12.7076   C.ar      1 RES1   0.0000
     4 H4      -2.6530  -1.4188 -13.1683   H         1 RES1   0.0000
     5 C5      -1.2881  -4.5128 -12.7691   C.ar      1 RES1   0.0000
     6 C6      -0.8173  -3.0836 -10.8742   C.ar      1 RES1   0.0000
     7 H7      -0.3629  -2.9290  -9.9013   H         1 RES1   0.0000
     8 C8      -1.5180  -2.0824 -11.4854   C.ar      1 RES1   0.0000
     9 C9      -1.9941  -3.4590 -13.3427   C.ar      1 RES1   0.0000
    10 H10     -2.4708  -3.5947 -14.3068   H         1 RES1   0.0000
    11 C11     -1.1659  -5.8217 -13.4895   C.2       1 RES1   0.0000
    12 F12     -1.6334  -0.8834 -10.8522   F         1 RES1   0.0000
    13 N13     -1.2406  -7.9410 -14.1570   N.am      1 RES1   0.0000
    14 C14     -1.5106  -9.4109 -14.3092   C.3       1 RES1   0.0000
    15 H15     -1.1035  -9.7318 -15.2670   H         1 RES1   0.0000
    16 C16     -0.3252  -7.6743 -16.4955   C.3       1 RES1   0.0000
    17 H17     -0.2978  -6.8543 -17.2102   H         1 RES1   0.0000
    18 H18      0.6368  -8.1816 -16.5253   H         1 RES1   0.0000
    19 H19     -1.0903  -8.3784 -16.8158   H         1 RES1   0.0000
    20 C20     -0.5870  -5.9122 -14.7311   C.2       1 RES1   0.0000
    21 C21      0.0604  -4.8376 -15.5265   C.ar      1 RES1   0.0000
    22 O22     -2.1510  -7.5590 -12.1278   O.2       1 RES1   0.0000
    23 C23     -1.5821  -7.1365 -13.1259   C.2       1 RES1   0.0000
    24 N24     -0.6101  -7.1788 -15.1485   N.pl3     1 RES1   0.0000
    25 C25     -1.0509 -11.6946 -13.3605   C.3       1 RES1   0.0000
    26 H26     -0.5769 -12.2260 -12.5365   H         1 RES1   0.0000
    27 H27     -0.6263 -12.0348 -14.3038   H         1 RES1   0.0000
    28 C28     -3.2420 -11.2269 -14.4245   C.3       1 RES1   0.0000
    29 H29     -2.8826 -11.5654 -15.3952   H         1 RES1   0.0000
    30 H30     -4.3093 -11.4269 -14.3427   H         1 RES1   0.0000
    31 C31     -3.0035  -9.7297 -14.2983   C.3       1 RES1   0.0000
    32 H32     -3.4824  -9.2211 -15.1338   H         1 RES1   0.0000
    33 H33     -3.4360  -9.3778 -13.3629   H         1 RES1   0.0000
    34 C34     -0.8083 -10.2033 -13.2059   C.3       1 RES1   0.0000
    35 H35     -1.1899  -9.8799 -12.2386   H         1 RES1   0.0000
    36 H36      0.2623 -10.0106 -13.2567   H         1 RES1   0.0000
    37 N37     -2.5207 -11.9690 -13.3491   N.4       1 RES1   1.0000
    38 H38     -2.8983 -11.6892 -12.4494   H         1 RES1   0.0000
    39 H39     -2.6684 -12.9641 -13.4833   H         1 RES1   0.0000
    40 N40      1.3774  -4.6591 -15.3388   N.ar      1 RES1   0.0000
    41 C41      0.0602  -3.0675 -17.0834   C.ar      1 RES1   0.0000
    42 H42     -0.4737  -2.4365 -17.7862   H         1 RES1   0.0000
    43 N43      3.2815  -3.4798 -15.8307   N.pl3     1 RES1   0.0000
    44 H44      3.7509  -2.7653 -16.3869   H         1 RES1   0.0000
    45 C45     -0.6510  -4.0422 -16.4129   C.ar      1 RES1   0.0000
    46 H46     -1.7159  -4.1777 -16.5702   H         1 RES1   0.0000
    47 C47      1.9685  -3.6735 -16.0332   C.ar      1 RES1   0.0000
    48 N48      1.3719  -2.8567 -16.9137   N.ar      1 RES1   0.0000
    49 C49      4.0941  -4.2721 -14.9079   C.3       1 RES1   0.0000
    50 H50      3.6997  -5.2998 -14.8841   H         1 RES1   0.0000
    51 C51      4.0759  -3.7154 -13.4978   C.ar      1 RES1   0.0000
    52 C52      5.5148  -4.3101 -15.4587   C.3       1 RES1   0.0000
    53 H53      6.1586  -4.9165 -14.8251   H         1 RES1   0.0000
    54 H54      5.5307  -4.7328 -16.4611   H         1 RES1   0.0000
    55 H55      5.9350  -3.3077 -15.5072   H         1 RES1   0.0000
    56 C56      4.0483  -2.6790 -10.9122   C.ar      1 RES1   0.0000
    57 H57      4.0368  -2.2753  -9.9052   H         1 RES1   0.0000
    58 C58      4.5290  -2.4289 -13.2435   C.ar      1 RES1   0.0000
    59 H59      4.8989  -1.8196 -14.0615   H         1 RES1   0.0000
    60 C60      3.6106  -4.4755 -12.4336   C.ar      1 RES1   0.0000
    61 H61      3.2529  -5.4848 -12.6077   H         1 RES1   0.0000
    62 C62      3.5972  -3.9589 -11.1489   C.ar      1 RES1   0.0000
    63 H63      3.2300  -4.5643 -10.3269   H         1 RES1   0.0000
    64 C64      4.5141  -1.9138 -11.9585   C.ar      1 RES1   0.0000
    65 H65      4.8701  -0.9053 -11.7757   H         1 RES1   0.0000
@<TRIPOS>BOND
     1     1     5   ar
     2     1     6   ar
     3     1     2    1
     4     3     8   ar
     5     3     9   ar
     6     3     4    1
     7     5     9   ar
     8     5    11    1
     9     6     8   ar
    10     6     7    1
    11     8    12    1
    12     9    10    1
    13    11    20    2
    14    11    23    1
    15    13    14    1
    16    13    23   am
    17    13    24    1
    18    14    31    1
    19    14    34    1
    20    14    15    1
    21    16    24    1
    22    16    17    1
    23    16    18    1
    24    16    19    1
    25    20    21    1
    26    20    24    1
    27    21    40   ar
    28    21    45   ar
    29    22    23    2
    30    25    34    1
    31    25    37    1
    32    25    26    1
    33    25    27    1
    34    28    31    1
    35    28    37    1
    36    28    29    1
    37    28    30    1
    38    31    32    1
    39    31    33    1
    40    34    35    1
    41    34    36    1
    42    37    38    1
    43    37    39    1
    44    40    47   ar
    45    41    45   ar
    46    41    48   ar
    47    41    42    1
    48    43    47    1
    49    43    49    1
    50    43    44    1
    51    45    46    1
    52    47    48   ar
    53    49    51    1
    54    49    52    1
    55    49    50    1
    56    51    58   ar
    57    51    60   ar
    58    52    53    1
    59    52    54    1
    60    52    55    1
    61    56    62   ar
    62    56    64   ar
    63    56    57    1
    64    58    64   ar
    65    58    59    1
    66    60    62   ar
    67    60    61    1
    68    62    63    1
    69    64    65    1
@<TRIPOS>SUBSTRUCTURE
     1 RES1        1 GROUP             0 ****  ****    0  
@<TRIPOS>MOLECULE
LIGAND_00165
    65    69     1     0     0
SMALL
USER_CHARGES
****
Generated from the CSD

@<TRIPOS>ATOM
     1 C1       0.3359  -4.0444 -15.7323   C.ar      1 RES1   0.0000
     2 H2      -0.3718  -4.4422 -16.4516   H         1 RES1   0.0000
     3 C3       2.1186  -2.9892 -13.9046   C.ar      1 RES1   0.0000
     4 H4       2.8149  -2.5644 -13.1891   H         1 RES1   0.0000
     5 C5       0.5126  -4.6946 -14.5146   C.ar      1 RES1   0.0000
     6 C6       1.0410  -2.8953 -16.0437   C.ar      1 RES1   0.0000
     7 H7       0.9036  -2.4008 -16.9995   H         1 RES1   0.0000
     8 C8       1.9135  -2.3965 -15.1178   C.ar      1 RES1   0.0000
     9 C9       1.4177  -4.1446 -13.6113   C.ar      1 RES1   0.0000
    10 H10      1.5844  -4.6299 -12.6564   H         1 RES1   0.0000
    11 C11     -0.2467  -5.9380 -14.1617   C.2       1 RES1   0.0000
    12 F12      2.6063  -1.2636 -15.4151   F         1 RES1   0.0000
    13 N13     -1.2406  -7.9410 -14.1570   N.am      1 RES1   0.0000
    14 C14     -1.5106  -9.4109 -14.3092   C.3       1 RES1   0.0000
    15 H15     -0.9491  -9.7701 -15.1704   H         1 RES1   0.0000
    16 C16     -2.9634  -7.4981 -12.4712   C.3       1 RES1   0.0000
    17 H17     -3.2161  -6.7696 -11.7036   H         1 RES1   0.0000
    18 H18     -3.7034  -7.4237 -13.2653   H         1 RES1   0.0000
    19 H19     -3.0343  -8.4914 -12.0331   H         1 RES1   0.0000
    20 C20     -1.0688  -6.0097 -13.0848   C.2       1 RES1   0.0000
    21 C21     -1.4087  -4.9383 -12.1137   C.ar      1 RES1   0.0000
    22 O22      0.2750  -7.5989 -15.8623   O.2       1 RES1   0.0000
    23 C23     -0.3156  -7.1911 -14.8707   C.2       1 RES1   0.0000
    24 N24     -1.6169  -7.2574 -12.9912   N.3       1 RES1   0.0000
    25 C25     -1.2720 -11.6680 -13.2251   C.3       1 RES1   0.0000
    26 H26     -0.9608 -12.1784 -12.3149   H         1 RES1   0.0000
    27 H27     -0.6961 -12.0463 -14.0684   H         1 RES1   0.0000
    28 C28     -3.2328 -11.2030 -14.6711   C.3       1 RES1   0.0000
    29 H29     -2.7164 -11.5797 -15.5528   H         1 RES1   0.0000
    30 H30     -4.3020 -11.3838 -14.7719   H         1 RES1   0.0000
    31 C31     -2.9887  -9.7063 -14.5509   C.3       1 RES1   0.0000
    32 H32     -3.3033  -9.2190 -15.4725   H         1 RES1   0.0000
    33 H33     -3.5708  -9.3164 -13.7171   H         1 RES1   0.0000
    34 C34     -1.0290 -10.1762 -13.0760   C.3       1 RES1   0.0000
    35 H35     -1.5670  -9.8145 -12.2011   H         1 RES1   0.0000
    36 H36      0.0378 -10.0017 -12.9440   H         1 RES1   0.0000
    37 N37     -2.7266 -11.9193 -13.4635   N.4       1 RES1   1.0000
    38 H38     -3.2498 -11.6036 -12.6531   H         1 RES1   0.0000
    39 H39     -2.8693 -12.9161 -13.5911   H         1 RES1   0.0000
    40 N40     -2.4741  -4.1759 -12.4060   N.ar      1 RES1   0.0000
    41 C41     -1.0710  -3.6820 -10.1479   C.ar      1 RES1   0.0000
    42 H42     -0.5068  -3.4933  -9.2404   H         1 RES1   0.0000
    43 N43     -3.8280  -2.4106 -11.8503   N.pl3     1 RES1   0.0000
    44 H44     -4.3078  -2.5777 -12.7348   H         1 RES1   0.0000
    45 C45     -0.6634  -4.7173 -10.9648   C.ar      1 RES1   0.0000
    46 H46      0.2002  -5.3270 -10.7208   H         1 RES1   0.0000
    47 C47     -2.7755  -3.1875 -11.5485   C.ar      1 RES1   0.0000
    48 N48     -2.1231  -2.8969 -10.4135   N.ar      1 RES1   0.0000
    49 C49     -4.2910  -1.2988 -11.0201   C.3       1 RES1   0.0000
    50 H50     -4.0065  -1.4969  -9.9751   H         1 RES1   0.0000
    51 C51     -5.7947  -1.1164 -11.0847   C.ar      1 RES1   0.0000
    52 C52     -3.5704  -0.0402 -11.4891   C.3       1 RES1   0.0000
    53 H53     -3.8543   0.8165 -10.8816   H         1 RES1   0.0000
    54 H54     -2.4915  -0.1625 -11.4192   H         1 RES1   0.0000
    55 H55     -3.8196   0.1818 -12.5247   H         1 RES1   0.0000
    56 C56     -8.5575  -0.7860 -11.2181   C.ar      1 RES1   0.0000
    57 H57     -9.6337  -0.6580 -11.2696   H         1 RES1   0.0000
    58 C58     -6.4873  -1.3933 -12.2546   C.ar      1 RES1   0.0000
    59 H59     -5.9462  -1.7421 -13.1279   H         1 RES1   0.0000
    60 C60     -6.5099  -0.6685  -9.9825   C.ar      1 RES1   0.0000
    61 H61     -5.9897  -0.4438  -9.0573   H         1 RES1   0.0000
    62 C62     -7.8832  -0.5051 -10.0502   C.ar      1 RES1   0.0000
    63 H63     -8.4292  -0.1548  -9.1806   H         1 RES1   0.0000
    64 C64     -7.8606  -1.2300 -12.3202   C.ar      1 RES1   0.0000
    65 H65     -8.3885  -1.4523 -13.2415   H         1 RES1   0.0000
@<TRIPOS>BOND
     1     1     5   ar
     2     1     6   ar
     3     1     2    1
     4     3     8   ar
     5     3     9   ar
     6     3     4    1
     7     5     9   ar
     8     5    11    1
     9     6     8   ar
    10     6     7    1
    11     8    12    1
    12     9    10    1
    13    11    20    2
    14    11    23    1
    15    13    14    1
    16    13    23   am
    17    13    24    1
    18    14    31    1
    19    14    34    1
    20    14    15    1
    21    16    24    1
    22    16    17    1
    23    16    18    1
    24    16    19    1
    25    20    21    1
    26    20    24    1
    27    21    40   ar
    28    21    45   ar
    29    22    23    2
    30    25    34    1
    31    25    37    1
    32    25    26    1
    33    25    27    1
    34    28    31    1
    35    28    37    1
    36    28    29    1
    37    28    30    1
    38    31    32    1
    39    31    33    1
    40    34    35    1
    41    34    36    1
    42    37    38    1
    43    37    39    1
    44    40    47   ar
    45    41    45   ar
    46    41    48   ar
    47    41    42    1
    48    43    47    1
    49    43    49    1
    50    43    44    1
    51    45    46    1
    52    47    48   ar
    53    49    51    1
    54    49    52    1
    55    49    50    1
    56    51    58   ar
    57    51    60   ar
    58    52    53    1
    59    52    54    1
    60    52    55    1
    61    56    62   ar
    62    56    64   ar
    63    56    57    1
    64    58    64   ar
    65    58    59    1
    66    60    62   ar
    67    60    61    1
    68    62    63    1
    69    64    65    1
@<TRIPOS>SUBSTRUCTURE
     1 RES1        1 GROUP             0 ****  ****    0  
@<TRIPOS>MOLECULE
LIGAND_00166
    65    69     1     0     0
SMALL
USER_CHARGES
****
Generated from the CSD

@<TRIPOS>ATOM
     1 C1      -0.4428  -3.6874 -12.4149   C.ar      1 RES1   0.0000
     2 H2       0.5778  -4.0377 -12.5247   H         1 RES1   0.0000
     3 C3      -3.0300  -2.7544 -12.1545   C.ar      1 RES1   0.0000
     4 H4      -4.0427  -2.3777 -12.0554   H         1 RES1   0.0000
     5 C5      -1.4906  -4.4748 -12.8827   C.ar      1 RES1   0.0000
     6 C6      -0.6751  -2.4616 -11.8166   C.ar      1 RES1   0.0000
     7 H7       0.1477  -1.8591 -11.4464   H         1 RES1   0.0000
     8 C8      -1.9656  -2.0264 -11.7048   C.ar      1 RES1   0.0000
     9 C9      -2.7852  -3.9838 -12.7383   C.ar      1 RES1   0.0000
    10 H10     -3.6249  -4.5750 -13.0856   H         1 RES1   0.0000
    11 C11     -1.2544  -5.8030 -13.5363   C.2       1 RES1   0.0000
    12 F12     -2.2011  -0.8193 -11.1224   F         1 RES1   0.0000
    13 N13     -1.1783  -7.9481 -14.1158   N.am      1 RES1   0.0000
    14 C14     -1.3643  -9.4348 -14.2225   C.3       1 RES1   0.0000
    15 H15     -0.8763  -9.7717 -15.1359   H         1 RES1   0.0000
    16 C16     -0.1169  -7.7265 -16.3966   C.3       1 RES1   0.0000
    17 H17      0.2832  -6.9370 -17.0294   H         1 RES1   0.0000
    18 H18      0.6499  -8.4899 -16.2820   H         1 RES1   0.0000
    19 H19     -0.9670  -8.1734 -16.9078   H         1 RES1   0.0000
    20 C20     -0.5870  -5.9122 -14.7311   C.2       1 RES1   0.0000
    21 C21      0.0604  -4.8376 -15.5265   C.ar      1 RES1   0.0000
    22 O22     -2.2450  -7.5341 -12.1707   O.2       1 RES1   0.0000
    23 C23     -1.6297  -7.1223 -13.1455   C.2       1 RES1   0.0000
    24 N24     -0.5187  -7.1937 -15.0943   N.pl3     1 RES1   0.0000
    25 C25     -0.8600 -11.6523 -13.1477   C.3       1 RES1   0.0000
    26 H26     -0.4190 -12.1253 -12.2715   H         1 RES1   0.0000
    27 H27     -0.3546 -12.0069 -14.0447   H         1 RES1   0.0000
    28 C28     -2.9921 -11.3416 -14.3764   C.3       1 RES1   0.0000
    29 H29     -2.5498 -11.6990 -15.3051   H         1 RES1   0.0000
    30 H30     -4.0514 -11.5934 -14.3582   H         1 RES1   0.0000
    31 C31     -2.8369  -9.8302 -14.2988   C.3       1 RES1   0.0000
    32 H32     -3.2809  -9.3806 -15.1857   H         1 RES1   0.0000
    33 H33     -3.3503  -9.4646 -13.4107   H         1 RES1   0.0000
    34 C34     -0.7024 -10.1455 -13.0413   C.3       1 RES1   0.0000
    35 H35     -1.1659  -9.8044 -12.1167   H         1 RES1   0.0000
    36 H36      0.3583  -9.8994 -13.0280   H         1 RES1   0.0000
    37 N37     -2.3118 -12.0021 -13.2238   N.4       1 RES1   1.0000
    38 H38     -2.7644 -11.7070 -12.3645   H         1 RES1   0.0000
    39 H39     -2.4006 -13.0081 -13.3248   H         1 RES1   0.0000
    40 N40     -0.4745  -4.5722 -16.7286   N.ar      1 RES1   0.0000
    41 C41      1.6905  -3.1773 -15.9048   C.ar      1 RES1   0.0000
    42 H42      2.5557  -2.6175 -15.5653   H         1 RES1   0.0000
    43 N43     -0.4029  -3.3687 -18.6792   N.pl3     1 RES1   0.0000
    44 H44     -1.1993  -3.9287 -18.9831   H         1 RES1   0.0000
    45 C45      1.1705  -4.1438 -15.0676   C.ar      1 RES1   0.0000
    46 H46      1.6110  -4.3522 -14.0982   H         1 RES1   0.0000
    47 C47      0.1180  -3.6205 -17.4677   C.ar      1 RES1   0.0000
    48 N48      1.1874  -2.8931 -17.1131   N.ar      1 RES1   0.0000
    49 C49      0.1392  -2.3848 -19.6161   C.3       1 RES1   0.0000
    50 H50      0.1982  -1.4097 -19.1083   H         1 RES1   0.0000
    51 C51     -0.7205  -2.2323 -20.8556   C.ar      1 RES1   0.0000
    52 C52      1.5507  -2.8263 -19.9848   C.3       1 RES1   0.0000
    53 H53      1.8319  -2.4431 -20.9635   H         1 RES1   0.0000
    54 H54      2.2732  -2.4616 -19.2577   H         1 RES1   0.0000
    55 H55      1.6183  -3.9118 -20.0142   H         1 RES1   0.0000
    56 C56     -2.2979  -1.9671 -23.1363   C.ar      1 RES1   0.0000
    57 H57     -2.9129  -1.8638 -24.0241   H         1 RES1   0.0000
    58 C58     -0.9550  -3.3180 -21.6870   C.ar      1 RES1   0.0000
    59 H59     -0.5184  -4.2816 -21.4461   H         1 RES1   0.0000
    60 C60     -1.2880  -1.0098 -21.1877   C.ar      1 RES1   0.0000
    61 H61     -1.1172  -0.1461 -20.5536   H         1 RES1   0.0000
    62 C62     -2.0722  -0.8796 -22.3214   C.ar      1 RES1   0.0000
    63 H63     -2.5099   0.0820 -22.5682   H         1 RES1   0.0000
    64 C64     -1.7400  -3.1861 -22.8198   C.ar      1 RES1   0.0000
    65 H65     -1.9158  -4.0447 -23.4592   H         1 RES1   0.0000
@<TRIPOS>BOND
     1     1     5   ar
     2     1     6   ar
     3     1     2    1
     4     3     8   ar
     5     3     9   ar
     6     3     4    1
     7     5     9   ar
     8     5    11    1
     9     6     8   ar
    10     6     7    1
    11     8    12    1
    12     9    10    1
    13    11    20    2
    14    11    23    1
    15    13    14    1
    16    13    23   am
    17    13    24    1
    18    14    31    1
    19    14    34    1
    20    14    15    1
    21    16    24    1
    22    16    17    1
    23    16    18    1
    24    16    19    1
    25    20    21    1
    26    20    24    1
    27    21    40   ar
    28    21    45   ar
    29    22    23    2
    30    25    34    1
    31    25    37    1
    32    25    26    1
    33    25    27    1
    34    28    31    1
    35    28    37    1
    36    28    29    1
    37    28    30    1
    38    31    32    1
    39    31    33    1
    40    34    35    1
    41    34    36    1
    42    37    38    1
    43    37    39    1
    44    40    47   ar
    45    41    45   ar
    46    41    48   ar
    47    41    42    1
    48    43    47    1
    49    43    49    1
    50    43    44    1
    51    45    46    1
    52    47    48   ar
    53    49    51    1
    54    49    52    1
    55    49    50    1
    56    51    58   ar
    57    51    60   ar
    58    52    53    1
    59    52    54    1
    60    52    55    1
    61    56    62   ar
    62    56    64   ar
    63    56    57    1
    64    58    64   ar
    65    58    59    1
    66    60    62   ar
    67    60    61    1
    68    62    63    1
    69    64    65    1
@<TRIPOS>SUBSTRUCTURE
     1 RES1        1 GROUP             0 ****  ****    0  
@<TRIPOS>MOLECULE
LIGAND_00167
    65    69     1     0     0
SMALL
USER_CHARGES
****
Generated from the CSD

@<TRIPOS>ATOM
     1 C1      -0.3078  -4.3801 -11.5416   C.ar      1 RES1   0.0000
     2 H2       0.3351  -5.1853 -11.2029   H         1 RES1   0.0000
     3 C3      -1.9091  -2.3000 -12.4023   C.ar      1 RES1   0.0000
     4 H4      -2.5297  -1.4758 -12.7382   H         1 RES1   0.0000
     5 C5      -1.0924  -4.5621 -12.6765   C.ar      1 RES1   0.0000
     6 C6      -0.3259  -3.1891 -10.8375   C.ar      1 RES1   0.0000
     7 H7       0.2821  -3.0599  -9.9483   H         1 RES1   0.0000
     8 C8      -1.1263  -2.1781 -11.2898   C.ar      1 RES1   0.0000
     9 C9      -1.8922  -3.5001 -13.0891   C.ar      1 RES1   0.0000
    10 H10     -2.5209  -3.6108 -13.9652   H         1 RES1   0.0000
    11 C11     -1.0806  -5.8451 -13.4518   C.2       1 RES1   0.0000
    12 F12     -1.1449  -1.0021 -10.6054   F         1 RES1   0.0000
    13 N13     -1.3015  -7.9300 -14.1916   N.am      1 RES1   0.0000
    14 C14     -1.6523  -9.3784 -14.3806   C.3       1 RES1   0.0000
    15 H15     -1.3234  -9.6788 -15.3743   H         1 RES1   0.0000
    16 C16     -0.5247  -7.6118 -16.5734   C.3       1 RES1   0.0000
    17 H17     -0.1404  -6.8078 -17.1978   H         1 RES1   0.0000
    18 H18      0.1762  -8.4426 -16.6220   H         1 RES1   0.0000
    19 H19     -1.4729  -7.9429 -16.9916   H         1 RES1   0.0000
    20 C20     -0.5870  -5.9122 -14.7311   C.2       1 RES1   0.0000
    21 C21      0.0604  -4.8376 -15.5265   C.ar      1 RES1   0.0000
    22 O22     -2.0611  -7.5883 -12.0943   O.2       1 RES1   0.0000
    23 C23     -1.5368  -7.1527 -13.1110   C.2       1 RES1   0.0000
    24 N24     -0.6987  -7.1584 -15.1930   N.pl3     1 RES1   0.0000
    25 C25     -1.2455 -11.7175 -13.5501   C.3       1 RES1   0.0000
    26 H26     -0.7465 -12.3032 -12.7795   H         1 RES1   0.0000
    27 H27     -0.8991 -12.0386 -14.5314   H         1 RES1   0.0000
    28 C28     -3.4745 -11.1057 -14.4497   C.3       1 RES1   0.0000
    29 H29     -3.1948 -11.4211 -15.4538   H         1 RES1   0.0000
    30 H30     -4.5429 -11.2590 -14.3055   H         1 RES1   0.0000
    31 C31     -3.1553  -9.6276 -14.2836   C.3       1 RES1   0.0000
    32 H32     -3.6610  -9.0639 -15.0661   H         1 RES1   0.0000
    33 H33     -3.5095  -9.2941 -13.3093   H         1 RES1   0.0000
    34 C34     -0.9207 -10.2466 -13.3562   C.3       1 RES1   0.0000
    35 H35     -1.2235  -9.9452 -12.3545   H         1 RES1   0.0000
    36 H36      0.1526 -10.1019 -13.4700   H         1 RES1   0.0000
    37 N37     -2.7232 -11.9234 -13.4524   N.4       1 RES1   1.0000
    38 H38     -3.0284 -11.6631 -12.5201   H         1 RES1   0.0000
    39 H39     -2.9277 -12.9044 -13.6138   H         1 RES1   0.0000
    40 N40      1.3518  -5.0181 -15.8447   N.ar      1 RES1   0.0000
    41 C41      0.0944  -2.7605 -16.6407   C.ar      1 RES1   0.0000
    42 H42     -0.4181  -1.8597 -16.9618   H         1 RES1   0.0000
    43 N43      3.2523  -4.2108 -16.8421   N.pl3     1 RES1   0.0000
    44 H44      3.7133  -3.4884 -17.3952   H         1 RES1   0.0000
    45 C45     -0.6202  -3.6935 -15.9166   C.ar      1 RES1   0.0000
    46 H46     -1.6635  -3.5377 -15.6629   H         1 RES1   0.0000
    47 C47      1.9548  -4.0414 -16.5414   C.ar      1 RES1   0.0000
    48 N48      1.3851  -2.9047 -16.9677   N.ar      1 RES1   0.0000
    49 C49      4.0295  -5.3960 -16.4802   C.3       1 RES1   0.0000
    50 H50      3.9555  -5.5472 -15.3921   H         1 RES1   0.0000
    51 C51      5.4936  -5.2621 -16.8504   C.ar      1 RES1   0.0000
    52 C52      3.3992  -6.5939 -17.1808   C.3       1 RES1   0.0000
    53 H53      4.1308  -7.3863 -17.3242   H         1 RES1   0.0000
    54 H54      2.5749  -6.9957 -16.5953   H         1 RES1   0.0000
    55 H55      3.0135  -6.3086 -18.1573   H         1 RES1   0.0000
    56 C56      8.1798  -5.0144 -17.5456   C.ar      1 RES1   0.0000
    57 H57      9.2260  -4.9173 -17.8161   H         1 RES1   0.0000
    58 C58      5.8701  -5.0673 -18.1715   C.ar      1 RES1   0.0000
    59 H59      5.1092  -5.0112 -18.9429   H         1 RES1   0.0000
    60 C60      6.4865  -5.3333 -15.8830   C.ar      1 RES1   0.0000
    61 H61      6.2163  -5.4870 -14.8435   H         1 RES1   0.0000
    62 C62      7.8213  -5.2097 -16.2300   C.ar      1 RES1   0.0000
    63 H63      8.5865  -5.2667 -15.4630   H         1 RES1   0.0000
    64 C64      7.2052  -4.9431 -18.5165   C.ar      1 RES1   0.0000
    65 H65      7.4840  -4.7893 -19.5536   H         1 RES1   0.0000
@<TRIPOS>BOND
     1     1     5   ar
     2     1     6   ar
     3     1     2    1
     4     3     8   ar
     5     3     9   ar
     6     3     4    1
     7     5     9   ar
     8     5    11    1
     9     6     8   ar
    10     6     7    1
    11     8    12    1
    12     9    10    1
    13    11    20    2
    14    11    23    1
    15    13    14    1
    16    13    23   am
    17    13    24    1
    18    14    31    1
    19    14    34    1
    20    14    15    1
    21    16    24    1
    22    16    17    1
    23    16    18    1
    24    16    19    1
    25    20    21    1
    26    20    24    1
    27    21    40   ar
    28    21    45   ar
    29    22    23    2
    30    25    34    1
    31    25    37    1
    32    25    26    1
    33    25    27    1
    34    28    31    1
    35    28    37    1
    36    28    29    1
    37    28    30    1
    38    31    32    1
    39    31    33    1
    40    34    35    1
    41    34    36    1
    42    37    38    1
    43    37    39    1
    44    40    47   ar
    45    41    45   ar
    46    41    48   ar
    47    41    42    1
    48    43    47    1
    49    43    49    1
    50    43    44    1
    51    45    46    1
    52    47    48   ar
    53    49    51    1
    54    49    52    1
    55    49    50    1
    56    51    58   ar
    57    51    60   ar
    58    52    53    1
    59    52    54    1
    60    52    55    1
    61    56    62   ar
    62    56    64   ar
    63    56    57    1
    64    58    64   ar
    65    58    59    1
    66    60    62   ar
    67    60    61    1
    68    62    63    1
    69    64    65    1
@<TRIPOS>SUBSTRUCTURE
     1 RES1        1 GROUP             0 ****  ****    0  
@<TRIPOS>MOLECULE
LIGAND_00168
    65    69     1     0     0
SMALL
USER_CHARGES
****
Generated from the CSD

@<TRIPOS>ATOM
     1 C1      -2.4793  -4.2530 -16.4101   C.ar      1 RES1   0.0000
     2 H2      -3.1363  -5.0584 -16.7201   H         1 RES1   0.0000
     3 C3      -0.8428  -2.1729 -15.6184   C.ar      1 RES1   0.0000
     4 H4      -0.2087  -1.3488 -15.3085   H         1 RES1   0.0000
     5 C5      -1.5965  -4.4580 -15.3540   C.ar      1 RES1   0.0000
     6 C6      -2.5413  -3.0390 -17.0712   C.ar      1 RES1   0.0000
     7 H7      -3.2260  -2.8917 -17.8997   H         1 RES1   0.0000
     8 C8      -1.7209  -2.0288 -16.6544   C.ar      1 RES1   0.0000
     9 C9      -0.7810  -3.3954 -14.9750   C.ar      1 RES1   0.0000
    10 H10     -0.0771  -3.5235 -14.1606   H         1 RES1   0.0000
    11 C11     -1.5207  -5.7662 -14.6259   C.2       1 RES1   0.0000
    12 F12     -1.7804  -0.8304 -17.2964   F         1 RES1   0.0000
    13 N13     -1.3114  -7.9562 -14.1607   N.am      1 RES1   0.0000
    14 C14     -1.6594  -9.4046 -14.3547   C.3       1 RES1   0.0000
    15 H15     -1.3268  -9.7019 -15.3481   H         1 RES1   0.0000
    16 C16     -1.1003  -7.7688 -11.7605   C.3       1 RES1   0.0000
    17 H17     -1.7556  -8.4611 -11.2360   H         1 RES1   0.0000
    18 H18     -0.1683  -8.2855 -11.9802   H         1 RES1   0.0000
    19 H19     -0.8790  -6.9388 -11.0930   H         1 RES1   0.0000
    20 C20     -1.7513  -5.9390 -13.3057   C.2       1 RES1   0.0000
    21 C21     -2.0254  -4.9138 -12.2663   C.ar      1 RES1   0.0000
    22 O22     -1.0792  -7.3834 -16.3739   O.2       1 RES1   0.0000
    23 C23     -1.2553  -7.0526 -15.2086   C.2       1 RES1   0.0000
    24 N24     -1.7310  -7.2889 -12.9906   N.3       1 RES1   0.0000
    25 C25     -1.2518 -11.7453 -13.5291   C.3       1 RES1   0.0000
    26 H26     -0.7545 -12.3324 -12.7584   H         1 RES1   0.0000
    27 H27     -0.9018 -12.0633 -14.5101   H         1 RES1   0.0000
    28 C28     -3.4788 -11.1345 -14.4345   C.3       1 RES1   0.0000
    29 H29     -3.1953 -11.4467 -15.4385   H         1 RES1   0.0000
    30 H30     -4.5475 -11.2898 -14.2941   H         1 RES1   0.0000
    31 C31     -3.1624  -9.6564 -14.2633   C.3       1 RES1   0.0000
    32 H32     -3.6664  -9.0913 -15.0461   H         1 RES1   0.0000
    33 H33     -3.5203  -9.3260 -13.2893   H         1 RES1   0.0000
    34 C34     -0.9299 -10.2744 -13.3302   C.3       1 RES1   0.0000
    35 H35     -1.2364  -9.9761 -12.3287   H         1 RES1   0.0000
    36 H36      0.1435 -10.1278 -13.4401   H         1 RES1   0.0000
    37 N37     -2.7296 -11.9537 -13.4369   N.4       1 RES1   1.0000
    38 H38     -3.0383 -11.6963 -12.5049   H         1 RES1   0.0000
    39 H39     -2.9321 -12.9346 -13.6015   H         1 RES1   0.0000
    40 N40     -1.1072  -4.7783 -11.2966   N.ar      1 RES1   0.0000
    41 C41     -3.3226  -3.2287 -11.2491   C.ar      1 RES1   0.0000
    42 H42     -4.2112  -2.6061 -11.2397   H         1 RES1   0.0000
    43 N43     -0.4495  -3.7510  -9.3549   N.pl3     1 RES1   0.0000
    44 H44      0.3501  -4.3842  -9.3613   H         1 RES1   0.0000
    45 C45     -3.1749  -4.1373 -12.2777   C.ar      1 RES1   0.0000
    46 H46     -3.9235  -4.2406 -13.0562   H         1 RES1   0.0000
    47 C47     -1.3567  -3.8727 -10.3371   C.ar      1 RES1   0.0000
    48 N48     -2.4311  -3.0737 -10.2618   N.ar      1 RES1   0.0000
    49 C49     -0.5681  -2.8098  -8.2415   C.3       1 RES1   0.0000
    50 H50     -1.1620  -1.9441  -8.5736   H         1 RES1   0.0000
    51 C51      0.7804  -2.3132  -7.7583   C.ar      1 RES1   0.0000
    52 C52     -1.3218  -3.5138  -7.1193   C.3       1 RES1   0.0000
    53 H53     -1.2851  -2.9285  -6.2029   H         1 RES1   0.0000
    54 H54     -2.3664  -3.6601  -7.3862   H         1 RES1   0.0000
    55 H55     -0.8846  -4.4891  -6.9157   H         1 RES1   0.0000
    56 C56      3.2590  -1.4128  -6.8607   C.ar      1 RES1   0.0000
    57 H57      4.2247  -1.0624  -6.5117   H         1 RES1   0.0000
    58 C58      1.4729  -3.0037  -6.7741   C.ar      1 RES1   0.0000
    59 H59      1.0435  -3.9048  -6.3488   H         1 RES1   0.0000
    60 C60      1.3500  -1.1616  -8.2840   C.ar      1 RES1   0.0000
    61 H61      0.8263  -0.6039  -9.0533   H         1 RES1   0.0000
    62 C62      2.5823  -0.7154  -7.8370   C.ar      1 RES1   0.0000
    63 H63      3.0156   0.1859  -8.2575   H         1 RES1   0.0000
    64 C64      2.7053  -2.5565  -6.3290   C.ar      1 RES1   0.0000
    65 H65      3.2356  -3.1083  -5.5600   H         1 RES1   0.0000
@<TRIPOS>BOND
     1     1     5   ar
     2     1     6   ar
     3     1     2    1
     4     3     8   ar
     5     3     9   ar
     6     3     4    1
     7     5     9   ar
     8     5    11    1
     9     6     8   ar
    10     6     7    1
    11     8    12    1
    12     9    10    1
    13    11    20    2
    14    11    23    1
    15    13    14    1
    16    13    23   am
    17    13    24    1
    18    14    31    1
    19    14    34    1
    20    14    15    1
    21    16    24    1
    22    16    17    1
    23    16    18    1
    24    16    19    1
    25    20    21    1
    26    20    24    1
    27    21    40   ar
    28    21    45   ar
    29    22    23    2
    30    25    34    1
    31    25    37    1
    32    25    26    1
    33    25    27    1
    34    28    31    1
    35    28    37    1
    36    28    29    1
    37    28    30    1
    38    31    32    1
    39    31    33    1
    40    34    35    1
    41    34    36    1
    42    37    38    1
    43    37    39    1
    44    40    47   ar
    45    41    45   ar
    46    41    48   ar
    47    41    42    1
    48    43    47    1
    49    43    49    1
    50    43    44    1
    51    45    46    1
    52    47    48   ar
    53    49    51    1
    54    49    52    1
    55    49    50    1
    56    51    58   ar
    57    51    60   ar
    58    52    53    1
    59    52    54    1
    60    52    55    1
    61    56    62   ar
    62    56    64   ar
    63    56    57    1
    64    58    64   ar
    65    58    59    1
    66    60    62   ar
    67    60    61    1
    68    62    63    1
    69    64    65    1
@<TRIPOS>SUBSTRUCTURE
     1 RES1        1 GROUP             0 ****  ****    0  
@<TRIPOS>MOLECULE
LIGAND_00169
    65    69     1     0     0
SMALL
USER_CHARGES
****
Generated from the CSD

@<TRIPOS>ATOM
     1 C1      -2.7105  -3.7024 -15.4393   C.ar      1 RES1   0.0000
     2 H2      -3.6196  -4.0709 -14.9765   H         1 RES1   0.0000
     3 C3      -0.4014  -2.7229 -16.5970   C.ar      1 RES1   0.0000
     4 H4       0.5031  -2.3279 -17.0477   H         1 RES1   0.0000
     5 C5      -1.5421  -4.4525 -15.3451   C.ar      1 RES1   0.0000
     6 C6      -2.7364  -2.4910 -16.1075   C.ar      1 RES1   0.0000
     7 H7      -3.6544  -1.9180 -16.1839   H         1 RES1   0.0000
     8 C8      -1.5774  -2.0321 -16.6673   C.ar      1 RES1   0.0000
     9 C9      -0.3922  -3.9386 -15.9381   C.ar      1 RES1   0.0000
    10 H10      0.5334  -4.5007 -15.8893   H         1 RES1   0.0000
    11 C11     -1.4977  -5.7645 -14.6215   C.2       1 RES1   0.0000
    12 F12     -1.5942  -0.8388 -17.3212   F         1 RES1   0.0000
    13 N13     -1.3297  -7.9594 -14.1624   N.am      1 RES1   0.0000
    14 C14     -1.6971  -9.4014 -14.3678   C.3       1 RES1   0.0000
    15 H15     -1.3542  -9.6998 -15.3574   H         1 RES1   0.0000
    16 C16     -1.1526  -7.7849 -11.7585   C.3       1 RES1   0.0000
    17 H17     -1.8260  -8.4699 -11.2476   H         1 RES1   0.0000
    18 H18     -0.2248  -8.3141 -11.9659   H         1 RES1   0.0000
    19 H19     -0.9299  -6.9611 -11.0836   H         1 RES1   0.0000
    20 C20     -1.7513  -5.9390 -13.3057   C.2       1 RES1   0.0000
    21 C21     -2.0254  -4.9138 -12.2663   C.ar      1 RES1   0.0000
    22 O22     -1.0547  -7.3815 -16.3693   O.2       1 RES1   0.0000
    23 C23     -1.2435  -7.0526 -15.2055   C.2       1 RES1   0.0000
    24 N24     -1.7568  -7.2903 -12.9961   N.3       1 RES1   0.0000
    25 C25     -1.3383 -11.7515 -13.5462   C.3       1 RES1   0.0000
    26 H26     -0.8618 -12.3493 -12.7706   H         1 RES1   0.0000
    27 H27     -0.9784 -12.0709 -14.5231   H         1 RES1   0.0000
    28 C28     -3.5416 -11.1025 -14.4823   C.3       1 RES1   0.0000
    29 H29     -3.2479 -11.4150 -15.4833   H         1 RES1   0.0000
    30 H30     -4.6146 -11.2417 -14.3587   H         1 RES1   0.0000
    31 C31     -3.2050  -9.6301 -14.3001   C.3       1 RES1   0.0000
    32 H32     -3.6883  -9.0542 -15.0879   H         1 RES1   0.0000
    33 H33     -3.5724  -9.2982 -13.3302   H         1 RES1   0.0000
    34 C34     -0.9967 -10.2866 -13.3362   C.3       1 RES1   0.0000
    35 H35     -1.3136  -9.9877 -12.3381   H         1 RES1   0.0000
    36 H36      0.0804 -10.1563 -13.4293   H         1 RES1   0.0000
    37 N37     -2.8203 -11.9373 -13.4771   N.4       1 RES1   1.0000
    38 H38     -3.1390 -11.6789 -12.5487   H         1 RES1   0.0000
    39 H39     -3.0355 -12.9142 -13.6489   H         1 RES1   0.0000
    40 N40     -1.1072  -4.7783 -11.2966   N.ar      1 RES1   0.0000
    41 C41     -3.3226  -3.2287 -11.2491   C.ar      1 RES1   0.0000
    42 H42     -4.2112  -2.6061 -11.2397   H         1 RES1   0.0000
    43 N43     -0.4495  -3.7510  -9.3549   N.pl3     1 RES1   0.0000
    44 H44      0.3501  -4.3842  -9.3613   H         1 RES1   0.0000
    45 C45     -3.1749  -4.1373 -12.2777   C.ar      1 RES1   0.0000
    46 H46     -3.9235  -4.2406 -13.0562   H         1 RES1   0.0000
    47 C47     -1.3567  -3.8727 -10.3371   C.ar      1 RES1   0.0000
    48 N48     -2.4311  -3.0737 -10.2618   N.ar      1 RES1   0.0000
    49 C49     -0.5681  -2.8098  -8.2415   C.3       1 RES1   0.0000
    50 H50     -1.1621  -1.9442  -8.5735   H         1 RES1   0.0000
    51 C51      0.7804  -2.3132  -7.7584   C.ar      1 RES1   0.0000
    52 C52     -1.3218  -3.5139  -7.1193   C.3       1 RES1   0.0000
    53 H53     -1.3519  -2.8937  -6.2259   H         1 RES1   0.0000
    54 H54     -2.3459  -3.7301  -7.4163   H         1 RES1   0.0000
    55 H55     -0.8380  -4.4540  -6.8624   H         1 RES1   0.0000
    56 C56      3.2590  -1.4127  -6.8607   C.ar      1 RES1   0.0000
    57 H57      4.2247  -1.0623  -6.5118   H         1 RES1   0.0000
    58 C58      1.4729  -3.0036  -6.7741   C.ar      1 RES1   0.0000
    59 H59      1.0435  -3.9046  -6.3487   H         1 RES1   0.0000
    60 C60      1.3500  -1.1616  -8.2841   C.ar      1 RES1   0.0000
    61 H61      0.8263  -0.6040  -9.0534   H         1 RES1   0.0000
    62 C62      2.5823  -0.7154  -7.8372   C.ar      1 RES1   0.0000
    63 H63      3.0156   0.1859  -8.2577   H         1 RES1   0.0000
    64 C64      2.7052  -2.5564  -6.3290   C.ar      1 RES1   0.0000
    65 H65      3.2355  -3.1081  -5.5599   H         1 RES1   0.0000
@<TRIPOS>BOND
     1     1     5   ar
     2     1     6   ar
     3     1     2    1
     4     3     8   ar
     5     3     9   ar
     6     3     4    1
     7     5     9   ar
     8     5    11    1
     9     6     8   ar
    10     6     7    1
    11     8    12    1
    12     9    10    1
    13    11    20    2
    14    11    23    1
    15    13    14    1
    16    13    23   am
    17    13    24    1
    18    14    31    1
    19    14    34    1
    20    14    15    1
    21    16    24    1
    22    16    17    1
    23    16    18    1
    24    16    19    1
    25    20    21    1
    26    20    24    1
    27    21    40   ar
    28    21    45   ar
    29    22    23    2
    30    25    34    1
    31    25    37    1
    32    25    26    1
    33    25    27    1
    34    28    31    1
    35    28    37    1
    36    28    29    1
    37    28    30    1
    38    31    32    1
    39    31    33    1
    40    34    35    1
    41    34    36    1
    42    37    38    1
    43    37    39    1
    44    40    47   ar
    45    41    45   ar
    46    41    48   ar
    47    41    42    1
    48    43    47    1
    49    43    49    1
    50    43    44    1
    51    45    46    1
    52    47    48   ar
    53    49    51    1
    54    49    52    1
    55    49    50    1
    56    51    58   ar
    57    51    60   ar
    58    52    53    1
    59    52    54    1
    60    52    55    1
    61    56    62   ar
    62    56    64   ar
    63    56    57    1
    64    58    64   ar
    65    58    59    1
    66    60    62   ar
    67    60    61    1
    68    62    63    1
    69    64    65    1
@<TRIPOS>SUBSTRUCTURE
     1 RES1        1 GROUP             0 ****  ****    0  
@<TRIPOS>MOLECULE
LIGAND_00170
    65    69     1     0     0
SMALL
USER_CHARGES
****
Generated from the CSD

@<TRIPOS>ATOM
     1 C1      -2.7105  -3.7024 -15.4393   C.ar      1 RES1   0.0000
     2 H2      -3.6196  -4.0709 -14.9765   H         1 RES1   0.0000
     3 C3      -0.4013  -2.7229 -16.5969   C.ar      1 RES1   0.0000
     4 H4       0.5031  -2.3279 -17.0477   H         1 RES1   0.0000
     5 C5      -1.5421  -4.4524 -15.3451   C.ar      1 RES1   0.0000
     6 C6      -2.7364  -2.4910 -16.1075   C.ar      1 RES1   0.0000
     7 H7      -3.6544  -1.9180 -16.1839   H         1 RES1   0.0000
     8 C8      -1.5774  -2.0321 -16.6673   C.ar      1 RES1   0.0000
     9 C9      -0.3922  -3.9386 -15.9381   C.ar      1 RES1   0.0000
    10 H10      0.5334  -4.5007 -15.8893   H         1 RES1   0.0000
    11 C11     -1.4977  -5.7645 -14.6215   C.2       1 RES1   0.0000
    12 F12     -1.5941  -0.8388 -17.3212   F         1 RES1   0.0000
    13 N13     -1.3297  -7.9594 -14.1624   N.am      1 RES1   0.0000
    14 C14     -1.6971  -9.4014 -14.3678   C.3       1 RES1   0.0000
    15 H15     -1.3542  -9.6998 -15.3574   H         1 RES1   0.0000
    16 C16     -1.1526  -7.7849 -11.7585   C.3       1 RES1   0.0000
    17 H17     -1.8261  -8.4699 -11.2476   H         1 RES1   0.0000
    18 H18     -0.2248  -8.3141 -11.9659   H         1 RES1   0.0000
    19 H19     -0.9299  -6.9611 -11.0836   H         1 RES1   0.0000
    20 C20     -1.7513  -5.9390 -13.3057   C.2       1 RES1   0.0000
    21 C21     -2.0254  -4.9138 -12.2663   C.ar      1 RES1   0.0000
    22 O22     -1.0547  -7.3815 -16.3693   O.2       1 RES1   0.0000
    23 C23     -1.2435  -7.0526 -15.2055   C.2       1 RES1   0.0000
    24 N24     -1.7568  -7.2903 -12.9961   N.3       1 RES1   0.0000
    25 C25     -1.3383 -11.7515 -13.5462   C.3       1 RES1   0.0000
    26 H26     -0.8618 -12.3493 -12.7706   H         1 RES1   0.0000
    27 H27     -0.9785 -12.0709 -14.5232   H         1 RES1   0.0000
    28 C28     -3.5416 -11.1024 -14.4823   C.3       1 RES1   0.0000
    29 H29     -3.2479 -11.4150 -15.4833   H         1 RES1   0.0000
    30 H30     -4.6146 -11.2417 -14.3587   H         1 RES1   0.0000
    31 C31     -3.2050  -9.6301 -14.3001   C.3       1 RES1   0.0000
    32 H32     -3.6883  -9.0542 -15.0879   H         1 RES1   0.0000
    33 H33     -3.5724  -9.2982 -13.3302   H         1 RES1   0.0000
    34 C34     -0.9967 -10.2866 -13.3362   C.3       1 RES1   0.0000
    35 H35     -1.3136  -9.9877 -12.3381   H         1 RES1   0.0000
    36 H36      0.0804 -10.1563 -13.4293   H         1 RES1   0.0000
    37 N37     -2.8203 -11.9373 -13.4771   N.4       1 RES1   1.0000
    38 H38     -3.1391 -11.6789 -12.5487   H         1 RES1   0.0000
    39 H39     -3.0355 -12.9142 -13.6490   H         1 RES1   0.0000
    40 N40     -1.1072  -4.7783 -11.2966   N.ar      1 RES1   0.0000
    41 C41     -3.3226  -3.2287 -11.2491   C.ar      1 RES1   0.0000
    42 H42     -4.2112  -2.6061 -11.2397   H         1 RES1   0.0000
    43 N43     -0.4495  -3.7510  -9.3549   N.pl3     1 RES1   0.0000
    44 H44     -0.6036  -3.0322  -8.6479   H         1 RES1   0.0000
    45 C45     -3.1749  -4.1373 -12.2777   C.ar      1 RES1   0.0000
    46 H46     -3.9235  -4.2406 -13.0562   H         1 RES1   0.0000
    47 C47     -1.3567  -3.8727 -10.3371   C.ar      1 RES1   0.0000
    48 N48     -2.4311  -3.0737 -10.2618   N.ar      1 RES1   0.0000
    49 C49      0.7780  -4.5421  -9.2702   C.3       1 RES1   0.0000
    50 H50      0.6096  -5.5086  -9.7700   H         1 RES1   0.0000
    51 C51      1.1976  -4.8062  -7.8375   C.ar      1 RES1   0.0000
    52 C52      1.8667  -3.7884 -10.0251   C.3       1 RES1   0.0000
    53 H53      2.8292  -4.2827  -9.9102   H         1 RES1   0.0000
    54 H54      1.6371  -3.7368 -11.0873   H         1 RES1   0.0000
    55 H55      1.9614  -2.7718  -9.6493   H         1 RES1   0.0000
    56 C56      1.9768  -5.2783  -5.2050   C.ar      1 RES1   0.0000
    57 H57      2.2796  -5.4619  -4.1794   H         1 RES1   0.0000
    58 C58      2.0236  -3.9131  -7.1704   C.ar      1 RES1   0.0000
    59 H59      2.3705  -3.0205  -7.6805   H         1 RES1   0.0000
    60 C60      0.7701  -5.9421  -7.1637   C.ar      1 RES1   0.0000
    61 H61      0.1251  -6.6558  -7.6654   H         1 RES1   0.0000
    62 C62      1.1580  -6.1752  -5.8551   C.ar      1 RES1   0.0000
    63 H63      0.8155  -7.0670  -5.3407   H         1 RES1   0.0000
    64 C64      2.4098  -4.1475  -5.8617   C.ar      1 RES1   0.0000
    65 H65      3.0547  -3.4389  -5.3527   H         1 RES1   0.0000
@<TRIPOS>BOND
     1     1     5   ar
     2     1     6   ar
     3     1     2    1
     4     3     8   ar
     5     3     9   ar
     6     3     4    1
     7     5     9   ar
     8     5    11    1
     9     6     8   ar
    10     6     7    1
    11     8    12    1
    12     9    10    1
    13    11    20    2
    14    11    23    1
    15    13    14    1
    16    13    23   am
    17    13    24    1
    18    14    31    1
    19    14    34    1
    20    14    15    1
    21    16    24    1
    22    16    17    1
    23    16    18    1
    24    16    19    1
    25    20    21    1
    26    20    24    1
    27    21    40   ar
    28    21    45   ar
    29    22    23    2
    30    25    34    1
    31    25    37    1
    32    25    26    1
    33    25    27    1
    34    28    31    1
    35    28    37    1
    36    28    29    1
    37    28    30    1
    38    31    32    1
    39    31    33    1
    40    34    35    1
    41    34    36    1
    42    37    38    1
    43    37    39    1
    44    40    47   ar
    45    41    45   ar
    46    41    48   ar
    47    41    42    1
    48    43    47    1
    49    43    49    1
    50    43    44    1
    51    45    46    1
    52    47    48   ar
    53    49    51    1
    54    49    52    1
    55    49    50    1
    56    51    58   ar
    57    51    60   ar
    58    52    53    1
    59    52    54    1
    60    52    55    1
    61    56    62   ar
    62    56    64   ar
    63    56    57    1
    64    58    64   ar
    65    58    59    1
    66    60    62   ar
    67    60    61    1
    68    62    63    1
    69    64    65    1
@<TRIPOS>SUBSTRUCTURE
     1 RES1        1 GROUP             0 ****  ****    0  
@<TRIPOS>MOLECULE
LIGAND_00171
    65    69     1     0     0
SMALL
USER_CHARGES
****
Generated from the CSD

@<TRIPOS>ATOM
     1 C1      -3.0248  -3.8117 -15.3691   C.ar      1 RES1   0.0000
     2 H2      -3.8579  -4.2218 -14.8086   H         1 RES1   0.0000
     3 C3      -0.9094  -2.7260 -16.7756   C.ar      1 RES1   0.0000
     4 H4      -0.0813  -2.2894 -17.3241   H         1 RES1   0.0000
     5 C5      -1.8085  -4.4880 -15.3803   C.ar      1 RES1   0.0000
     6 C6      -3.1929  -2.6215 -16.0545   C.ar      1 RES1   0.0000
     7 H7      -4.1477  -2.1065 -16.0477   H         1 RES1   0.0000
     8 C8      -2.1271  -2.1087 -16.7387   C.ar      1 RES1   0.0000
     9 C9      -0.7584  -3.9218 -16.0977   C.ar      1 RES1   0.0000
    10 H10      0.2005  -4.4262 -16.1329   H         1 RES1   0.0000
    11 C11     -1.6101  -5.7761 -14.6397   C.2       1 RES1   0.0000
    12 F12     -2.2837  -0.9357 -17.4105   F         1 RES1   0.0000
    13 N13     -1.2406  -7.9410 -14.1570   N.am      1 RES1   0.0000
    14 C14     -1.5106  -9.4109 -14.3092   C.3       1 RES1   0.0000
    15 H15     -1.2170  -9.7059 -15.3155   H         1 RES1   0.0000
    16 C16     -0.8997  -7.6987 -11.7768   C.3       1 RES1   0.0000
    17 H17     -1.4821  -8.4148 -11.2007   H         1 RES1   0.0000
    18 H18      0.0445  -8.1682 -12.0450   H         1 RES1   0.0000
    19 H19     -0.6847  -6.8442 -11.1386   H         1 RES1   0.0000
    20 C20     -1.7513  -5.9390 -13.3057   C.2       1 RES1   0.0000
    21 C21     -2.0254  -4.9138 -12.2663   C.ar      1 RES1   0.0000
    22 O22     -1.1751  -7.3947 -16.3880   O.2       1 RES1   0.0000
    23 C23     -1.3018  -7.0544 -15.2191   C.2       1 RES1   0.0000
    24 N24     -1.6302  -7.2794 -12.9734   N.3       1 RES1   0.0000
    25 C25     -0.9160 -11.7077 -13.4736   C.3       1 RES1   0.0000
    26 H26     -0.3415 -12.2498 -12.7240   H         1 RES1   0.0000
    27 H27     -0.6031 -12.0220 -14.4682   H         1 RES1   0.0000
    28 C28     -3.2233 -11.2474 -14.2589   C.3       1 RES1   0.0000
    29 H29     -2.9784 -11.5605 -15.2728   H         1 RES1   0.0000
    30 H30     -4.2710 -11.4637 -14.0554   H         1 RES1   0.0000
    31 C31     -2.9880  -9.7502 -14.1282   C.3       1 RES1   0.0000
    32 H32     -3.5685  -9.2306 -14.8891   H         1 RES1   0.0000
    33 H33     -3.3099  -9.4240 -13.1403   H         1 RES1   0.0000
    34 C34     -0.6732 -10.2168 -13.3154   C.3       1 RES1   0.0000
    35 H35     -0.9404  -9.9191 -12.3025   H         1 RES1   0.0000
    36 H36      0.3815 -10.0085 -13.4887   H         1 RES1   0.0000
    37 N37     -2.3709 -12.0022 -13.2939   N.4       1 RES1   1.0000
    38 H38     -2.6417 -11.7467 -12.3496   H         1 RES1   0.0000
    39 H39     -2.5225 -12.9962 -13.4320   H         1 RES1   0.0000
    40 N40     -3.1488  -5.0691 -11.5482   N.ar      1 RES1   0.0000
    41 C41     -1.5487  -2.9443 -11.0618   C.ar      1 RES1   0.0000
    42 H42     -0.8989  -2.0972 -10.8681   H         1 RES1   0.0000
    43 N43     -4.5543  -4.2769  -9.9188   N.pl3     1 RES1   0.0000
    44 H44     -4.7463  -3.6008  -9.1796   H         1 RES1   0.0000
    45 C45     -1.1781  -3.8376 -12.0468   C.ar      1 RES1   0.0000
    46 H46     -0.2689  -3.7025 -12.6231   H         1 RES1   0.0000
    47 C47     -3.4203  -4.1344 -10.6232   C.ar      1 RES1   0.0000
    48 N48     -2.6660  -3.0643 -10.3331   N.ar      1 RES1   0.0000
    49 C49     -5.5007  -5.3770 -10.1026   C.3       1 RES1   0.0000
    50 H50     -5.4307  -5.7321 -11.1424   H         1 RES1   0.0000
    51 C51     -6.9324  -4.9593  -9.8305   C.ar      1 RES1   0.0000
    52 C52     -5.0793  -6.5095  -9.1735   C.3       1 RES1   0.0000
    53 H53     -5.8385  -7.2882  -9.1447   H         1 RES1   0.0000
    54 H54     -4.1463  -6.9582  -9.5078   H         1 RES1   0.0000
    55 H55     -4.9338  -6.1410  -8.1601   H         1 RES1   0.0000
    56 C56     -9.5614  -4.1953  -9.3157   C.ar      1 RES1   0.0000
    57 H57    -10.5851  -3.8970  -9.1152   H         1 RES1   0.0000
    58 C58     -7.4606  -5.0498  -8.5507   C.ar      1 RES1   0.0000
    59 H59     -6.8423  -5.4232  -7.7411   H         1 RES1   0.0000
    60 C60     -7.7451  -4.4814 -10.8494   C.ar      1 RES1   0.0000
    61 H61     -7.3546  -4.4033 -11.8587   H         1 RES1   0.0000
    62 C62     -9.0515  -4.1016 -10.5919   C.ar      1 RES1   0.0000
    63 H63     -9.6749  -3.7293 -11.3981   H         1 RES1   0.0000
    64 C64     -8.7669  -4.6690  -8.2950   C.ar      1 RES1   0.0000
    65 H65     -9.1652  -4.7439  -7.2886   H         1 RES1   0.0000
@<TRIPOS>BOND
     1     1     5   ar
     2     1     6   ar
     3     1     2    1
     4     3     8   ar
     5     3     9   ar
     6     3     4    1
     7     5     9   ar
     8     5    11    1
     9     6     8   ar
    10     6     7    1
    11     8    12    1
    12     9    10    1
    13    11    20    2
    14    11    23    1
    15    13    14    1
    16    13    23   am
    17    13    24    1
    18    14    31    1
    19    14    34    1
    20    14    15    1
    21    16    24    1
    22    16    17    1
    23    16    18    1
    24    16    19    1
    25    20    21    1
    26    20    24    1
    27    21    40   ar
    28    21    45   ar
    29    22    23    2
    30    25    34    1
    31    25    37    1
    32    25    26    1
    33    25    27    1
    34    28    31    1
    35    28    37    1
    36    28    29    1
    37    28    30    1
    38    31    32    1
    39    31    33    1
    40    34    35    1
    41    34    36    1
    42    37    38    1
    43    37    39    1
    44    40    47   ar
    45    41    45   ar
    46    41    48   ar
    47    41    42    1
    48    43    47    1
    49    43    49    1
    50    43    44    1
    51    45    46    1
    52    47    48   ar
    53    49    51    1
    54    49    52    1
    55    49    50    1
    56    51    58   ar
    57    51    60   ar
    58    52    53    1
    59    52    54    1
    60    52    55    1
    61    56    62   ar
    62    56    64   ar
    63    56    57    1
    64    58    64   ar
    65    58    59    1
    66    60    62   ar
    67    60    61    1
    68    62    63    1
    69    64    65    1
@<TRIPOS>SUBSTRUCTURE
     1 RES1        1 GROUP             0 ****  ****    0  
@<TRIPOS>MOLECULE
LIGAND_00172
    65    69     1     0     0
SMALL
USER_CHARGES
****
Generated from the CSD

@<TRIPOS>ATOM
     1 C1      -3.0652  -4.4412 -16.2867   C.ar      1 RES1   0.0000
     2 H2      -3.6937  -5.3095 -16.4528   H         1 RES1   0.0000
     3 C3      -1.5026  -2.2042 -15.8562   C.ar      1 RES1   0.0000
     4 H4      -0.8982  -1.3192 -15.6869   H         1 RES1   0.0000
     5 C5      -2.0020  -4.5270 -15.3929   C.ar      1 RES1   0.0000
     6 C6      -3.3421  -3.2677 -16.9655   C.ar      1 RES1   0.0000
     7 H7      -4.1674  -3.2134 -17.6676   H         1 RES1   0.0000
     8 C8      -2.5527  -2.1778 -16.7291   C.ar      1 RES1   0.0000
     9 C9      -1.2282  -3.3870 -15.1944   C.ar      1 RES1   0.0000
    10 H10     -0.3881  -3.4214 -14.5102   H         1 RES1   0.0000
    11 C11     -1.6921  -5.7902 -14.6475   C.2       1 RES1   0.0000
    12 F12     -2.8225  -1.0187 -17.3890   F         1 RES1   0.0000
    13 N13     -1.1766  -7.9234 -14.1576   N.am      1 RES1   0.0000
    14 C14     -1.3718  -9.4081 -14.2754   C.3       1 RES1   0.0000
    15 H15     -1.1173  -9.7027 -15.2924   H         1 RES1   0.0000
    16 C16     -0.7210  -7.6243 -11.8031   C.3       1 RES1   0.0000
    17 H17     -1.2304  -8.3618 -11.1863   H         1 RES1   0.0000
    18 H18      0.2319  -8.0454 -12.1167   H         1 RES1   0.0000
    19 H19     -0.5196  -6.7490 -11.1891   H         1 RES1   0.0000
    20 C20     -1.7513  -5.9390 -13.3057   C.2       1 RES1   0.0000
    21 C21     -2.0254  -4.9138 -12.2663   C.ar      1 RES1   0.0000
    22 O22     -1.2629  -7.4104 -16.3958   O.2       1 RES1   0.0000
    23 C23     -1.3447  -7.0587 -15.2262   C.2       1 RES1   0.0000
    24 N24     -1.5376  -7.2652 -12.9630   N.3       1 RES1   0.0000
    25 C25     -0.6055 -11.6549 -13.4438   C.3       1 RES1   0.0000
    26 H26      0.0383 -12.1524 -12.7200   H         1 RES1   0.0000
    27 H27     -0.3299 -11.9676 -14.4499   H         1 RES1   0.0000
    28 C28     -2.9741 -11.3351 -14.1067   C.3       1 RES1   0.0000
    29 H29     -2.7675 -11.6506 -15.1284   H         1 RES1   0.0000
    30 H30     -3.9955 -11.6054 -13.8429   H         1 RES1   0.0000
    31 C31     -2.8160  -9.8253 -14.0088   C.3       1 RES1   0.0000
    32 H32     -3.4651  -9.3508 -14.7433   H         1 RES1   0.0000
    33 H33     -3.1015  -9.5014 -13.0090   H         1 RES1   0.0000
    34 C34     -0.4381 -10.1506 -13.3187   C.3       1 RES1   0.0000
    35 H35     -0.6661  -9.8517 -12.2966   H         1 RES1   0.0000
    36 H36      0.5924  -9.8873 -13.5526   H         1 RES1   0.0000
    37 N37     -2.0297 -12.0261 -13.1803   N.4       1 RES1   1.0000
    38 H38     -2.2627 -11.7707 -12.2260   H         1 RES1   0.0000
    39 H39     -2.1329 -13.0291 -13.2969   H         1 RES1   0.0000
    40 N40     -3.1488  -5.0691 -11.5482   N.ar      1 RES1   0.0000
    41 C41     -1.5487  -2.9443 -11.0618   C.ar      1 RES1   0.0000
    42 H42     -0.8989  -2.0972 -10.8681   H         1 RES1   0.0000
    43 N43     -4.5543  -4.2769  -9.9188   N.pl3     1 RES1   0.0000
    44 H44     -4.7463  -3.6008  -9.1796   H         1 RES1   0.0000
    45 C45     -1.1781  -3.8376 -12.0468   C.ar      1 RES1   0.0000
    46 H46     -0.2689  -3.7025 -12.6231   H         1 RES1   0.0000
    47 C47     -3.4203  -4.1344 -10.6232   C.ar      1 RES1   0.0000
    48 N48     -2.6660  -3.0643 -10.3331   N.ar      1 RES1   0.0000
    49 C49     -5.5007  -5.3770 -10.1025   C.3       1 RES1   0.0000
    50 H50     -5.4306  -5.7322 -11.1424   H         1 RES1   0.0000
    51 C51     -6.9324  -4.9593  -9.8306   C.ar      1 RES1   0.0000
    52 C52     -5.0793  -6.5094  -9.1734   C.3       1 RES1   0.0000
    53 H53     -5.7984  -7.3251  -9.2078   H         1 RES1   0.0000
    54 H54     -4.1062  -6.9034  -9.4590   H         1 RES1   0.0000
    55 H55     -5.0142  -6.1589  -8.1455   H         1 RES1   0.0000
    56 C56     -9.5615  -4.1953  -9.3159   C.ar      1 RES1   0.0000
    57 H57    -10.5852  -3.8970  -9.1154   H         1 RES1   0.0000
    58 C58     -7.4606  -5.0495  -8.5508   C.ar      1 RES1   0.0000
    59 H59     -6.8422  -5.4226  -7.7410   H         1 RES1   0.0000
    60 C60     -7.7451  -4.4817 -10.8496   C.ar      1 RES1   0.0000
    61 H61     -7.3547  -4.4039 -11.8589   H         1 RES1   0.0000
    62 C62     -9.0516  -4.1020 -10.5922   C.ar      1 RES1   0.0000
    63 H63     -9.6750  -3.7299 -11.3984   H         1 RES1   0.0000
    64 C64     -8.7669  -4.6687  -8.2951   C.ar      1 RES1   0.0000
    65 H65     -9.1651  -4.7433  -7.2887   H         1 RES1   0.0000
@<TRIPOS>BOND
     1     1     5   ar
     2     1     6   ar
     3     1     2    1
     4     3     8   ar
     5     3     9   ar
     6     3     4    1
     7     5     9   ar
     8     5    11    1
     9     6     8   ar
    10     6     7    1
    11     8    12    1
    12     9    10    1
    13    11    20    2
    14    11    23    1
    15    13    14    1
    16    13    23   am
    17    13    24    1
    18    14    31    1
    19    14    34    1
    20    14    15    1
    21    16    24    1
    22    16    17    1
    23    16    18    1
    24    16    19    1
    25    20    21    1
    26    20    24    1
    27    21    40   ar
    28    21    45   ar
    29    22    23    2
    30    25    34    1
    31    25    37    1
    32    25    26    1
    33    25    27    1
    34    28    31    1
    35    28    37    1
    36    28    29    1
    37    28    30    1
    38    31    32    1
    39    31    33    1
    40    34    35    1
    41    34    36    1
    42    37    38    1
    43    37    39    1
    44    40    47   ar
    45    41    45   ar
    46    41    48   ar
    47    41    42    1
    48    43    47    1
    49    43    49    1
    50    43    44    1
    51    45    46    1
    52    47    48   ar
    53    49    51    1
    54    49    52    1
    55    49    50    1
    56    51    58   ar
    57    51    60   ar
    58    52    53    1
    59    52    54    1
    60    52    55    1
    61    56    62   ar
    62    56    64   ar
    63    56    57    1
    64    58    64   ar
    65    58    59    1
    66    60    62   ar
    67    60    61    1
    68    62    63    1
    69    64    65    1
@<TRIPOS>SUBSTRUCTURE
     1 RES1        1 GROUP             0 ****  ****    0  
@<TRIPOS>MOLECULE
LIGAND_00173
    65    69     1     0     0
SMALL
USER_CHARGES
****
Generated from the CSD

@<TRIPOS>ATOM
     1 C1      -0.3701  -3.8964 -15.9918   C.ar      1 RES1   0.0000
     2 H2      -1.1642  -4.3349 -16.5863   H         1 RES1   0.0000
     3 C3       1.6297  -2.7392 -14.4773   C.ar      1 RES1   0.0000
     4 H4       2.4102  -2.2746 -13.8839   H         1 RES1   0.0000
     5 C5       0.0599  -4.5461 -14.8386   C.ar      1 RES1   0.0000
     6 C6       0.1911  -2.6974 -16.3942   C.ar      1 RES1   0.0000
     7 H7      -0.1441  -2.2032 -17.2999   H         1 RES1   0.0000
     8 C8       1.1764  -2.1489 -15.6225   C.ar      1 RES1   0.0000
     9 C9       1.0700  -3.9440 -14.0935   C.ar      1 RES1   0.0000
    10 H10      1.4331  -4.4269 -13.1935   H         1 RES1   0.0000
    11 C11     -0.5410  -5.8434 -14.3880   C.2       1 RES1   0.0000
    12 F12      1.7291  -0.9670 -16.0092   F         1 RES1   0.0000
    13 N13     -1.2406  -7.9410 -14.1570   N.am      1 RES1   0.0000
    14 C14     -1.5106  -9.4109 -14.3092   C.3       1 RES1   0.0000
    15 H15     -1.0788  -9.7377 -15.2540   H         1 RES1   0.0000
    16 C16     -2.0882  -7.8386 -11.7803   C.3       1 RES1   0.0000
    17 H17     -2.6361  -7.1177 -11.1771   H         1 RES1   0.0000
    18 H18     -2.7549  -8.6688 -12.0043   H         1 RES1   0.0000
    19 H19     -1.2602  -8.2192 -11.1860   H         1 RES1   0.0000
    20 C20     -1.1594  -5.9688 -13.1688   C.2       1 RES1   0.0000
    21 C21     -1.4160  -4.9157 -12.1531   C.ar      1 RES1   0.0000
    22 O22     -0.1808  -7.5094 -16.1020   O.2       1 RES1   0.0000
    23 C23     -0.6007  -7.1206 -15.0199   C.2       1 RES1   0.0000
    24 N24     -1.5984  -7.2184 -13.0119   N.pl3     1 RES1   0.0000
    25 C25     -1.0832 -11.6911 -13.3372   C.3       1 RES1   0.0000
    26 H26     -0.6331 -12.2196 -12.4981   H         1 RES1   0.0000
    27 H27     -0.6343 -12.0371 -14.2671   H         1 RES1   0.0000
    28 C28     -3.2435 -11.2227 -14.4623   C.3       1 RES1   0.0000
    29 H29     -2.8590 -11.5671 -15.4212   H         1 RES1   0.0000
    30 H30     -4.3132 -11.4194 -14.4083   H         1 RES1   0.0000
    31 C31     -3.0042  -9.7256 -14.3371   C.3       1 RES1   0.0000
    32 H32     -3.4589  -9.2199 -15.1876   H         1 RES1   0.0000
    33 H33     -3.4607  -9.3678 -13.4154   H         1 RES1   0.0000
    34 C34     -0.8406 -10.1997 -13.1835   C.3       1 RES1   0.0000
    35 H35     -1.2472  -9.8704 -12.2284   H         1 RES1   0.0000
    36 H36      0.2315 -10.0101 -13.2063   H         1 RES1   0.0000
    37 N37     -2.5535 -11.9614 -13.3641   N.4       1 RES1   1.0000
    38 H38     -2.9544 -11.6761 -12.4763   H         1 RES1   0.0000
    39 H39     -2.7004 -12.9568 -13.4974   H         1 RES1   0.0000
    40 N40     -0.8662  -5.0993 -10.9425   N.ar      1 RES1   0.0000
    41 C41     -2.3708  -2.8985 -11.3940   C.ar      1 RES1   0.0000
    42 H42     -2.9709  -2.0147 -11.5841   H         1 RES1   0.0000
    43 N43     -0.5809  -4.3597  -8.7908   N.pl3     1 RES1   0.0000
    44 H44     -0.7198  -3.6339  -8.0877   H         1 RES1   0.0000
    45 C45     -2.1938  -3.7996 -12.4246   C.ar      1 RES1   0.0000
    46 H46     -2.6438  -3.6432 -13.3994   H         1 RES1   0.0000
    47 C47     -1.1127  -4.1667 -10.0084   C.ar      1 RES1   0.0000
    48 N48     -1.8442  -3.0549 -10.1726   N.ar      1 RES1   0.0000
    49 C49      0.2382  -5.5160  -8.4280   C.3       1 RES1   0.0000
    50 H50     -0.0556  -6.3683  -9.0600   H         1 RES1   0.0000
    51 C51      0.0680  -5.9116  -6.9744   C.ar      1 RES1   0.0000
    52 C52      1.6909  -5.1662  -8.7293   C.3       1 RES1   0.0000
    53 H53      2.3446  -6.0071  -8.5073   H         1 RES1   0.0000
    54 H54      1.8174  -4.9064  -9.7782   H         1 RES1   0.0000
    55 H55      2.0144  -4.3184  -8.1290   H         1 RES1   0.0000
    56 C56     -0.2298  -6.6361  -4.3010   C.ar      1 RES1   0.0000
    57 H57     -0.3460  -6.9176  -3.2597   H         1 RES1   0.0000
    58 C58      1.1551  -5.9081  -6.1123   C.ar      1 RES1   0.0000
    59 H59      2.1329  -5.6201  -6.4842   H         1 RES1   0.0000
    60 C60     -1.1715  -6.2870  -6.4746   C.ar      1 RES1   0.0000
    61 H61     -2.0359  -6.2991  -7.1302   H         1 RES1   0.0000
    62 C62     -1.3180  -6.6465  -5.1455   C.ar      1 RES1   0.0000
    63 H63     -2.2930  -6.9370  -4.7686   H         1 RES1   0.0000
    64 C64      1.0066  -6.2671  -4.7835   C.ar      1 RES1   0.0000
    65 H65      1.8658  -6.2577  -4.1212   H         1 RES1   0.0000
@<TRIPOS>BOND
     1     1     5   ar
     2     1     6   ar
     3     1     2    1
     4     3     8   ar
     5     3     9   ar
     6     3     4    1
     7     5     9   ar
     8     5    11    1
     9     6     8   ar
    10     6     7    1
    11     8    12    1
    12     9    10    1
    13    11    20    2
    14    11    23    1
    15    13    14    1
    16    13    23   am
    17    13    24    1
    18    14    31    1
    19    14    34    1
    20    14    15    1
    21    16    24    1
    22    16    17    1
    23    16    18    1
    24    16    19    1
    25    20    21    1
    26    20    24    1
    27    21    40   ar
    28    21    45   ar
    29    22    23    2
    30    25    34    1
    31    25    37    1
    32    25    26    1
    33    25    27    1
    34    28    31    1
    35    28    37    1
    36    28    29    1
    37    28    30    1
    38    31    32    1
    39    31    33    1
    40    34    35    1
    41    34    36    1
    42    37    38    1
    43    37    39    1
    44    40    47   ar
    45    41    45   ar
    46    41    48   ar
    47    41    42    1
    48    43    47    1
    49    43    49    1
    50    43    44    1
    51    45    46    1
    52    47    48   ar
    53    49    51    1
    54    49    52    1
    55    49    50    1
    56    51    58   ar
    57    51    60   ar
    58    52    53    1
    59    52    54    1
    60    52    55    1
    61    56    62   ar
    62    56    64   ar
    63    56    57    1
    64    58    64   ar
    65    58    59    1
    66    60    62   ar
    67    60    61    1
    68    62    63    1
    69    64    65    1
@<TRIPOS>SUBSTRUCTURE
     1 RES1        1 GROUP             0 ****  ****    0  
@<TRIPOS>MOLECULE
LIGAND_00174
    65    69     1     0     0
SMALL
USER_CHARGES
****
Generated from the CSD

@<TRIPOS>ATOM
     1 C1      -0.7027  -3.3903 -14.9781   C.ar      1 RES1   0.0000
     2 H2      -1.7635  -3.4211 -14.7543   H         1 RES1   0.0000
     3 C3       2.0037  -3.2747 -15.5205   C.ar      1 RES1   0.0000
     4 H4       3.0672  -3.2194 -15.7282   H         1 RES1   0.0000
     5 C5       0.0599  -4.5461 -14.8386   C.ar      1 RES1   0.0000
     6 C6      -0.1343  -2.1985 -15.3916   C.ar      1 RES1   0.0000
     7 H7      -0.7388  -1.3050 -15.5067   H         1 RES1   0.0000
     8 C8       1.2073  -2.1727 -15.6497   C.ar      1 RES1   0.0000
     9 C9       1.4207  -4.4628 -15.1196   C.ar      1 RES1   0.0000
    10 H10      2.0424  -5.3462 -15.0278   H         1 RES1   0.0000
    11 C11     -0.5410  -5.8434 -14.3880   C.2       1 RES1   0.0000
    12 F12      1.7741  -1.0026 -16.0515   F         1 RES1   0.0000
    13 N13     -1.2406  -7.9410 -14.1570   N.am      1 RES1   0.0000
    14 C14     -1.5106  -9.4109 -14.3092   C.3       1 RES1   0.0000
    15 H15     -1.0787  -9.7377 -15.2540   H         1 RES1   0.0000
    16 C16     -2.0882  -7.8386 -11.7803   C.3       1 RES1   0.0000
    17 H17     -2.6361  -7.1177 -11.1771   H         1 RES1   0.0000
    18 H18     -2.7549  -8.6688 -12.0043   H         1 RES1   0.0000
    19 H19     -1.2602  -8.2192 -11.1860   H         1 RES1   0.0000
    20 C20     -1.1594  -5.9688 -13.1688   C.2       1 RES1   0.0000
    21 C21     -1.4160  -4.9157 -12.1531   C.ar      1 RES1   0.0000
    22 O22     -0.1808  -7.5094 -16.1020   O.2       1 RES1   0.0000
    23 C23     -0.6007  -7.1206 -15.0199   C.2       1 RES1   0.0000
    24 N24     -1.5984  -7.2184 -13.0119   N.pl3     1 RES1   0.0000
    25 C25     -1.0832 -11.6911 -13.3371   C.3       1 RES1   0.0000
    26 H26     -0.6332 -12.2196 -12.4980   H         1 RES1   0.0000
    27 H27     -0.6343 -12.0371 -14.2670   H         1 RES1   0.0000
    28 C28     -3.2435 -11.2227 -14.4624   C.3       1 RES1   0.0000
    29 H29     -2.8590 -11.5671 -15.4213   H         1 RES1   0.0000
    30 H30     -4.3132 -11.4194 -14.4084   H         1 RES1   0.0000
    31 C31     -3.0042  -9.7256 -14.3371   C.3       1 RES1   0.0000
    32 H32     -3.4588  -9.2199 -15.1877   H         1 RES1   0.0000
    33 H33     -3.4608  -9.3678 -13.4155   H         1 RES1   0.0000
    34 C34     -0.8407 -10.1997 -13.1834   C.3       1 RES1   0.0000
    35 H35     -1.2473  -9.8704 -12.2284   H         1 RES1   0.0000
    36 H36      0.2315 -10.0101 -13.2062   H         1 RES1   0.0000
    37 N37     -2.5536 -11.9613 -13.3641   N.4       1 RES1   1.0000
    38 H38     -2.9546 -11.6761 -12.4764   H         1 RES1   0.0000
    39 H39     -2.7004 -12.9568 -13.4974   H         1 RES1   0.0000
    40 N40     -2.6992  -4.6898 -11.8302   N.ar      1 RES1   0.0000
    41 C41     -0.7580  -3.2243 -10.6488   C.ar      1 RES1   0.0000
    42 H42      0.0265  -2.6440 -10.1743   H         1 RES1   0.0000
    43 N43     -4.2293  -3.4806 -10.6241   N.pl3     1 RES1   0.0000
    44 H44     -4.9477  -4.0053 -11.1229   H         1 RES1   0.0000
    45 C45     -0.3913  -4.1856 -11.5689   C.ar      1 RES1   0.0000
    46 H46      0.6486  -4.3597 -11.8246   H         1 RES1   0.0000
    47 C47     -2.9451  -3.7222 -10.9322   C.ar      1 RES1   0.0000
    48 N48     -2.0280  -2.9671 -10.3100   N.ar      1 RES1   0.0000
    49 C49     -4.6650  -2.4674  -9.6632   C.3       1 RES1   0.0000
    50 H50     -3.8675  -2.3223  -8.9180   H         1 RES1   0.0000
    51 C51     -5.9357  -2.8665  -8.9388   C.ar      1 RES1   0.0000
    52 C52     -4.8610  -1.1619 -10.4249   C.3       1 RES1   0.0000
    53 H53     -5.1557  -0.3613  -9.7497   H         1 RES1   0.0000
    54 H54     -3.9419  -0.8627 -10.9243   H         1 RES1   0.0000
    55 H55     -5.6368  -1.2704 -11.1800   H         1 RES1   0.0000
    56 C56     -8.2776  -3.5872  -7.6135   C.ar      1 RES1   0.0000
    57 H57     -9.1898  -3.8684  -7.0978   H         1 RES1   0.0000
    58 C58     -7.0761  -2.0821  -9.0349   C.ar      1 RES1   0.0000
    59 H59     -7.0552  -1.1771  -9.6329   H         1 RES1   0.0000
    60 C60     -5.9876  -4.0177  -8.1649   C.ar      1 RES1   0.0000
    61 H61     -5.1078  -4.6459  -8.0734   H         1 RES1   0.0000
    62 C62     -7.1525  -4.3748  -7.5070   C.ar      1 RES1   0.0000
    63 H63     -7.1786  -5.2778  -6.9062   H         1 RES1   0.0000
    64 C64     -8.2402  -2.4412  -8.3769   C.ar      1 RES1   0.0000
    65 H65     -9.1244  -1.8186  -8.4631   H         1 RES1   0.0000
@<TRIPOS>BOND
     1     1     5   ar
     2     1     6   ar
     3     1     2    1
     4     3     8   ar
     5     3     9   ar
     6     3     4    1
     7     5     9   ar
     8     5    11    1
     9     6     8   ar
    10     6     7    1
    11     8    12    1
    12     9    10    1
    13    11    20    2
    14    11    23    1
    15    13    14    1
    16    13    23   am
    17    13    24    1
    18    14    31    1
    19    14    34    1
    20    14    15    1
    21    16    24    1
    22    16    17    1
    23    16    18    1
    24    16    19    1
    25    20    21    1
    26    20    24    1
    27    21    40   ar
    28    21    45   ar
    29    22    23    2
    30    25    34    1
    31    25    37    1
    32    25    26    1
    33    25    27    1
    34    28    31    1
    35    28    37    1
    36    28    29    1
    37    28    30    1
    38    31    32    1
    39    31    33    1
    40    34    35    1
    41    34    36    1
    42    37    38    1
    43    37    39    1
    44    40    47   ar
    45    41    45   ar
    46    41    48   ar
    47    41    42    1
    48    43    47    1
    49    43    49    1
    50    43    44    1
    51    45    46    1
    52    47    48   ar
    53    49    51    1
    54    49    52    1
    55    49    50    1
    56    51    58   ar
    57    51    60   ar
    58    52    53    1
    59    52    54    1
    60    52    55    1
    61    56    62   ar
    62    56    64   ar
    63    56    57    1
    64    58    64   ar
    65    58    59    1
    66    60    62   ar
    67    60    61    1
    68    62    63    1
    69    64    65    1
@<TRIPOS>SUBSTRUCTURE
     1 RES1        1 GROUP             0 ****  ****    0  
@<TRIPOS>MOLECULE
LIGAND_00175
    65    69     1     0     0
SMALL
USER_CHARGES
****
Generated from the CSD

@<TRIPOS>ATOM
     1 C1      -0.7655  -3.8365 -15.9787   C.ar      1 RES1   0.0000
     2 H2      -1.6378  -4.2798 -16.4466   H         1 RES1   0.0000
     3 C3       1.4329  -2.6675 -14.7817   C.ar      1 RES1   0.0000
     4 H4       2.2910  -2.1985 -14.3119   H         1 RES1   0.0000
     5 C5      -0.1369  -4.5041 -14.9318   C.ar      1 RES1   0.0000
     6 C6      -0.3040  -2.6137 -16.4328   C.ar      1 RES1   0.0000
     7 H7      -0.7949  -2.1053 -17.2559   H         1 RES1   0.0000
     8 C8       0.7839  -2.0601 -15.8186   C.ar      1 RES1   0.0000
     9 C9       0.9698  -3.8957 -14.3464   C.ar      1 RES1   0.0000
    10 H10      1.4871  -4.3919 -13.5332   H         1 RES1   0.0000
    11 C11     -0.6275  -5.8274 -14.4265   C.2       1 RES1   0.0000
    12 F12      1.2400  -0.8550 -16.2564   F         1 RES1   0.0000
    13 N13     -1.1811  -7.9592 -14.1232   N.am      1 RES1   0.0000
    14 C14     -1.3693  -9.4451 -14.2381   C.3       1 RES1   0.0000
    15 H15     -0.9784  -9.7615 -15.2040   H         1 RES1   0.0000
    16 C16     -1.8827  -7.8670 -11.6990   C.3       1 RES1   0.0000
    17 H17     -2.4350  -7.1702 -11.0718   H         1 RES1   0.0000
    18 H18     -2.5100  -8.7397 -11.8689   H         1 RES1   0.0000
    19 H19     -0.9973  -8.1865 -11.1535   H         1 RES1   0.0000
    20 C20     -1.1594  -5.9688 -13.1688   C.2       1 RES1   0.0000
    21 C21     -1.4160  -4.9157 -12.1531   C.ar      1 RES1   0.0000
    22 O22     -0.2739  -7.4980 -16.1373   O.2       1 RES1   0.0000
    23 C23     -0.6482  -7.1166 -15.0361   C.2       1 RES1   0.0000
    24 N24     -1.5102  -7.2398 -12.9675   N.pl3     1 RES1   0.0000
    25 C25     -0.7426 -11.6781 -13.2646   C.3       1 RES1   0.0000
    26 H26     -0.2092 -12.1638 -12.4489   H         1 RES1   0.0000
    27 H27     -0.3325 -12.0124 -14.2164   H         1 RES1   0.0000
    28 C28     -2.9939 -11.3607 -14.2562   C.3       1 RES1   0.0000
    29 H29     -2.6499 -11.6978 -15.2329   H         1 RES1   0.0000
    30 H30     -4.0440 -11.6207 -14.1316   H         1 RES1   0.0000
    31 C31     -2.8396  -9.8499 -14.1666   C.3       1 RES1   0.0000
    32 H32     -3.3769  -9.3874 -14.9932   H         1 RES1   0.0000
    33 H33     -3.2586  -9.5045 -13.2227   H         1 RES1   0.0000
    34 C34     -0.5829 -10.1723 -13.1467   C.3       1 RES1   0.0000
    35 H35     -0.9483  -9.8517 -12.1723   H         1 RES1   0.0000
    36 H36      0.4720  -9.9187 -13.2403   H         1 RES1   0.0000
    37 N37     -2.1924 -12.0371 -13.1943   N.4       1 RES1   1.0000
    38 H38     -2.5536 -11.7613 -12.2867   H         1 RES1   0.0000
    39 H39     -2.2859 -13.0418 -13.3045   H         1 RES1   0.0000
    40 N40     -2.6992  -4.6898 -11.8302   N.ar      1 RES1   0.0000
    41 C41     -0.7580  -3.2243 -10.6488   C.ar      1 RES1   0.0000
    42 H42      0.0265  -2.6440 -10.1743   H         1 RES1   0.0000
    43 N43     -4.2293  -3.4806 -10.6241   N.pl3     1 RES1   0.0000
    44 H44     -4.9477  -4.0054 -11.1229   H         1 RES1   0.0000
    45 C45     -0.3913  -4.1856 -11.5689   C.ar      1 RES1   0.0000
    46 H46      0.6486  -4.3597 -11.8246   H         1 RES1   0.0000
    47 C47     -2.9451  -3.7222 -10.9322   C.ar      1 RES1   0.0000
    48 N48     -2.0280  -2.9671 -10.3100   N.ar      1 RES1   0.0000
    49 C49     -4.6650  -2.4674  -9.6633   C.3       1 RES1   0.0000
    50 H50     -3.8675  -2.3221  -8.9182   H         1 RES1   0.0000
    51 C51     -5.9355  -2.8665  -8.9387   C.ar      1 RES1   0.0000
    52 C52     -4.8613  -1.1619 -10.4251   C.3       1 RES1   0.0000
    53 H53     -5.1560  -0.3613  -9.7499   H         1 RES1   0.0000
    54 H54     -3.9422  -0.8627 -10.9246   H         1 RES1   0.0000
    55 H55     -5.6371  -1.2706 -11.1801   H         1 RES1   0.0000
    56 C56     -8.2771  -3.5874  -7.6129   C.ar      1 RES1   0.0000
    57 H57     -9.1893  -3.8686  -7.0971   H         1 RES1   0.0000
    58 C58     -7.0761  -2.0824  -9.0348   C.ar      1 RES1   0.0000
    59 H59     -7.0554  -1.1775  -9.6330   H         1 RES1   0.0000
    60 C60     -5.9871  -4.0176  -8.1645   C.ar      1 RES1   0.0000
    61 H61     -5.1072  -4.6456  -8.0729   H         1 RES1   0.0000
    62 C62     -7.1519  -4.3748  -7.5064   C.ar      1 RES1   0.0000
    63 H63     -7.1778  -5.2776  -6.9053   H         1 RES1   0.0000
    64 C64     -8.2400  -2.4416  -8.3767   C.ar      1 RES1   0.0000
    65 H65     -9.1245  -1.8191  -8.4629   H         1 RES1   0.0000
@<TRIPOS>BOND
     1     1     5   ar
     2     1     6   ar
     3     1     2    1
     4     3     8   ar
     5     3     9   ar
     6     3     4    1
     7     5     9   ar
     8     5    11    1
     9     6     8   ar
    10     6     7    1
    11     8    12    1
    12     9    10    1
    13    11    20    2
    14    11    23    1
    15    13    14    1
    16    13    23   am
    17    13    24    1
    18    14    31    1
    19    14    34    1
    20    14    15    1
    21    16    24    1
    22    16    17    1
    23    16    18    1
    24    16    19    1
    25    20    21    1
    26    20    24    1
    27    21    40   ar
    28    21    45   ar
    29    22    23    2
    30    25    34    1
    31    25    37    1
    32    25    26    1
    33    25    27    1
    34    28    31    1
    35    28    37    1
    36    28    29    1
    37    28    30    1
    38    31    32    1
    39    31    33    1
    40    34    35    1
    41    34    36    1
    42    37    38    1
    43    37    39    1
    44    40    47   ar
    45    41    45   ar
    46    41    48   ar
    47    41    42    1
    48    43    47    1
    49    43    49    1
    50    43    44    1
    51    45    46    1
    52    47    48   ar
    53    49    51    1
    54    49    52    1
    55    49    50    1
    56    51    58   ar
    57    51    60   ar
    58    52    53    1
    59    52    54    1
    60    52    55    1
    61    56    62   ar
    62    56    64   ar
    63    56    57    1
    64    58    64   ar
    65    58    59    1
    66    60    62   ar
    67    60    61    1
    68    62    63    1
    69    64    65    1
@<TRIPOS>SUBSTRUCTURE
     1 RES1        1 GROUP             0 ****  ****    0  
@<TRIPOS>MOLECULE
LIGAND_00176
    65    69     1     0     0
SMALL
USER_CHARGES
****
Generated from the CSD

@<TRIPOS>ATOM
     1 C1      -0.7102  -3.3903 -14.9800   C.ar      1 RES1   0.0000
     2 H2      -1.7707  -3.4228 -14.7544   H         1 RES1   0.0000
     3 C3       1.9949  -3.2703 -15.5272   C.ar      1 RES1   0.0000
     4 H4       3.0579  -3.2133 -15.7368   H         1 RES1   0.0000
     5 C5       0.0545  -4.5447 -14.8414   C.ar      1 RES1   0.0000
     6 C6      -0.1446  -2.1977 -15.3950   C.ar      1 RES1   0.0000
     7 H7      -0.7508  -1.3053 -15.5094   H         1 RES1   0.0000
     8 C8       1.1965  -2.1697 -15.6555   C.ar      1 RES1   0.0000
     9 C9       1.4147  -4.4593 -15.1248   C.ar      1 RES1   0.0000
    10 H10      2.0380  -5.3415 -15.0337   H         1 RES1   0.0000
    11 C11     -0.5433  -5.8429 -14.3892   C.2       1 RES1   0.0000
    12 F12      1.7606  -0.9988 -16.0588   F         1 RES1   0.0000
    13 N13     -1.2390  -7.9416 -14.1560   N.am      1 RES1   0.0000
    14 C14     -1.5067  -9.4120 -14.3071   C.3       1 RES1   0.0000
    15 H15     -1.0761  -9.7384 -15.2526   H         1 RES1   0.0000
    16 C16     -2.0826  -7.8396 -11.7779   C.3       1 RES1   0.0000
    17 H17     -2.6308  -7.1194 -11.1740   H         1 RES1   0.0000
    18 H18     -2.7482  -8.6711 -12.0003   H         1 RES1   0.0000
    19 H19     -1.2528  -8.2184 -11.1848   H         1 RES1   0.0000
    20 C20     -1.1594  -5.9688 -13.1688   C.2       1 RES1   0.0000
    21 C21     -1.4160  -4.9157 -12.1531   C.ar      1 RES1   0.0000
    22 O22     -0.1834  -7.5090 -16.1031   O.2       1 RES1   0.0000
    23 C23     -0.6020  -7.1205 -15.0204   C.2       1 RES1   0.0000
    24 N24     -1.5960  -7.2191 -13.0106   N.pl3     1 RES1   0.0000
    25 C25     -1.0736 -11.6911 -13.3349   C.3       1 RES1   0.0000
    26 H26     -0.6211 -12.2185 -12.4965   H         1 RES1   0.0000
    27 H27     -0.6258 -12.0367 -14.2655   H         1 RES1   0.0000
    28 C28     -3.2368 -11.2268 -14.4562   C.3       1 RES1   0.0000
    29 H29     -2.8535 -11.5709 -15.4157   H         1 RES1   0.0000
    30 H30     -4.3061 -11.4253 -14.4001   H         1 RES1   0.0000
    31 C31     -2.9998  -9.7293 -14.3321   C.3       1 RES1   0.0000
    32 H32     -3.4570  -9.2247 -15.1819   H         1 RES1   0.0000
    33 H33     -3.4553  -9.3719 -13.4097   H         1 RES1   0.0000
    34 C34     -0.8333 -10.1992 -13.1823   C.3       1 RES1   0.0000
    35 H35     -1.2387  -9.8702 -12.2266   H         1 RES1   0.0000
    36 H36      0.2385 -10.0078 -13.2072   H         1 RES1   0.0000
    37 N37     -2.5435 -11.9638 -13.3590   N.4       1 RES1   1.0000
    38 H38     -2.9433 -11.6789 -12.4706   H         1 RES1   0.0000
    39 H39     -2.6889 -12.9596 -13.4916   H         1 RES1   0.0000
    40 N40     -0.3411  -4.2871 -11.6519   N.ar      1 RES1   0.0000
    41 C41     -2.8045  -3.6095 -10.7664   C.ar      1 RES1   0.0000
    42 H42     -3.7964  -3.3386 -10.4200   H         1 RES1   0.0000
    43 N43      0.5165  -2.7366 -10.1964   N.pl3     1 RES1   0.0000
    44 H44      1.4385  -3.0474 -10.5026   H         1 RES1   0.0000
    45 C45     -2.6965  -4.5965 -11.7253   C.ar      1 RES1   0.0000
    46 H46     -3.5713  -5.1000 -12.1232   H         1 RES1   0.0000
    47 C47     -0.5591  -3.3512 -10.7141   C.ar      1 RES1   0.0000
    48 N48     -1.7533  -2.9686 -10.2391   N.ar      1 RES1   0.0000
    49 C49      0.4510  -1.6924  -9.1742   C.3       1 RES1   0.0000
    50 H50     -0.5180  -1.1764  -9.2590   H         1 RES1   0.0000
    51 C51      1.5582  -0.6675  -9.3231   C.ar      1 RES1   0.0000
    52 C52      0.5207  -2.3736  -7.8124   C.3       1 RES1   0.0000
    53 H53      0.4432  -1.6424  -7.0104   H         1 RES1   0.0000
    54 H54     -0.2888  -3.0911  -7.6961   H         1 RES1   0.0000
    55 H55      1.4632  -2.9046  -7.6963   H         1 RES1   0.0000
    56 C56      3.6022   1.2046  -9.6020   C.ar      1 RES1   0.0000
    57 H57      4.3979   1.9339  -9.7113   H         1 RES1   0.0000
    58 C58      2.8073  -1.0448  -9.7948   C.ar      1 RES1   0.0000
    59 H59      2.9901  -2.0815 -10.0576   H         1 RES1   0.0000
    60 C60      1.3510   0.6642  -8.9908   C.ar      1 RES1   0.0000
    61 H61      0.3831   0.9826  -8.6182   H         1 RES1   0.0000
    62 C62      2.3678   1.5937  -9.1304   C.ar      1 RES1   0.0000
    63 H63      2.1912   2.6314  -8.8674   H         1 RES1   0.0000
    64 C64      3.8226  -0.1140  -9.9343   C.ar      1 RES1   0.0000
    65 H65      4.7935  -0.4239 -10.3062   H         1 RES1   0.0000
@<TRIPOS>BOND
     1     1     5   ar
     2     1     6   ar
     3     1     2    1
     4     3     8   ar
     5     3     9   ar
     6     3     4    1
     7     5     9   ar
     8     5    11    1
     9     6     8   ar
    10     6     7    1
    11     8    12    1
    12     9    10    1
    13    11    20    2
    14    11    23    1
    15    13    14    1
    16    13    23   am
    17    13    24    1
    18    14    31    1
    19    14    34    1
    20    14    15    1
    21    16    24    1
    22    16    17    1
    23    16    18    1
    24    16    19    1
    25    20    21    1
    26    20    24    1
    27    21    40   ar
    28    21    45   ar
    29    22    23    2
    30    25    34    1
    31    25    37    1
    32    25    26    1
    33    25    27    1
    34    28    31    1
    35    28    37    1
    36    28    29    1
    37    28    30    1
    38    31    32    1
    39    31    33    1
    40    34    35    1
    41    34    36    1
    42    37    38    1
    43    37    39    1
    44    40    47   ar
    45    41    45   ar
    46    41    48   ar
    47    41    42    1
    48    43    47    1
    49    43    49    1
    50    43    44    1
    51    45    46    1
    52    47    48   ar
    53    49    51    1
    54    49    52    1
    55    49    50    1
    56    51    58   ar
    57    51    60   ar
    58    52    53    1
    59    52    54    1
    60    52    55    1
    61    56    62   ar
    62    56    64   ar
    63    56    57    1
    64    58    64   ar
    65    58    59    1
    66    60    62   ar
    67    60    61    1
    68    62    63    1
    69    64    65    1
@<TRIPOS>SUBSTRUCTURE
     1 RES1        1 GROUP             0 ****  ****    0  
@<TRIPOS>MOLECULE
LIGAND_00177
    65    69     1     0     0
SMALL
USER_CHARGES
****
Generated from the CSD

@<TRIPOS>ATOM
     1 C1      -0.7104  -3.3903 -14.9800   C.ar      1 RES1   0.0000
     2 H2      -1.7708  -3.4228 -14.7544   H         1 RES1   0.0000
     3 C3       1.9948  -3.2702 -15.5274   C.ar      1 RES1   0.0000
     4 H4       3.0578  -3.2132 -15.7370   H         1 RES1   0.0000
     5 C5       0.0544  -4.5447 -14.8414   C.ar      1 RES1   0.0000
     6 C6      -0.1448  -2.1977 -15.3951   C.ar      1 RES1   0.0000
     7 H7      -0.7510  -1.3053 -15.5095   H         1 RES1   0.0000
     8 C8       1.1963  -2.1697 -15.6556   C.ar      1 RES1   0.0000
     9 C9       1.4146  -4.4592 -15.1249   C.ar      1 RES1   0.0000
    10 H10      2.0379  -5.3415 -15.0338   H         1 RES1   0.0000
    11 C11     -0.5434  -5.8429 -14.3892   C.2       1 RES1   0.0000
    12 F12      1.7603  -0.9988 -16.0589   F         1 RES1   0.0000
    13 N13     -1.2390  -7.9416 -14.1560   N.am      1 RES1   0.0000
    14 C14     -1.5066  -9.4120 -14.3071   C.3       1 RES1   0.0000
    15 H15     -1.0761  -9.7384 -15.2526   H         1 RES1   0.0000
    16 C16     -2.0825  -7.8396 -11.7778   C.3       1 RES1   0.0000
    17 H17     -2.6308  -7.1195 -11.1740   H         1 RES1   0.0000
    18 H18     -2.7479  -8.6713 -12.0003   H         1 RES1   0.0000
    19 H19     -1.2527  -8.2182 -11.1847   H         1 RES1   0.0000
    20 C20     -1.1594  -5.9688 -13.1688   C.2       1 RES1   0.0000
    21 C21     -1.4160  -4.9157 -12.1531   C.ar      1 RES1   0.0000
    22 O22     -0.1834  -7.5090 -16.1031   O.2       1 RES1   0.0000
    23 C23     -0.6020  -7.1205 -15.0204   C.2       1 RES1   0.0000
    24 N24     -1.5960  -7.2191 -13.0106   N.pl3     1 RES1   0.0000
    25 C25     -1.0734 -11.6911 -13.3350   C.3       1 RES1   0.0000
    26 H26     -0.6207 -12.2185 -12.4966   H         1 RES1   0.0000
    27 H27     -0.6257 -12.0367 -14.2656   H         1 RES1   0.0000
    28 C28     -3.2367 -11.2269 -14.4560   C.3       1 RES1   0.0000
    29 H29     -2.8535 -11.5710 -15.4156   H         1 RES1   0.0000
    30 H30     -4.3059 -11.4254 -14.3998   H         1 RES1   0.0000
    31 C31     -2.9997  -9.7293 -14.3319   C.3       1 RES1   0.0000
    32 H32     -3.4570  -9.2248 -15.1817   H         1 RES1   0.0000
    33 H33     -3.4552  -9.3720 -13.4095   H         1 RES1   0.0000
    34 C34     -0.8331 -10.1992 -13.1823   C.3       1 RES1   0.0000
    35 H35     -1.2384  -9.8702 -12.2266   H         1 RES1   0.0000
    36 H36      0.2387 -10.0077 -13.2074   H         1 RES1   0.0000
    37 N37     -2.5433 -11.9639 -13.3589   N.4       1 RES1   1.0000
    38 H38     -2.9430 -11.6790 -12.4705   H         1 RES1   0.0000
    39 H39     -2.6887 -12.9596 -13.4915   H         1 RES1   0.0000
    40 N40     -0.3411  -4.2871 -11.6519   N.ar      1 RES1   0.0000
    41 C41     -2.8045  -3.6095 -10.7664   C.ar      1 RES1   0.0000
    42 H42     -3.7964  -3.3386 -10.4200   H         1 RES1   0.0000
    43 N43      0.5165  -2.7366 -10.1964   N.pl3     1 RES1   0.0000
    44 H44      0.3609  -1.9890  -9.5202   H         1 RES1   0.0000
    45 C45     -2.6965  -4.5965 -11.7253   C.ar      1 RES1   0.0000
    46 H46     -3.5713  -5.1000 -12.1232   H         1 RES1   0.0000
    47 C47     -0.5591  -3.3512 -10.7141   C.ar      1 RES1   0.0000
    48 N48     -1.7533  -2.9686 -10.2391   N.ar      1 RES1   0.0000
    49 C49      1.8952  -3.0287 -10.5883   C.3       1 RES1   0.0000
    50 H50      1.9463  -4.0675 -10.9495   H         1 RES1   0.0000
    51 C51      2.8692  -2.8694  -9.4374   C.ar      1 RES1   0.0000
    52 C52      2.2563  -2.0964 -11.7387   C.3       1 RES1   0.0000
    53 H53      3.2659  -2.2934 -12.0932   H         1 RES1   0.0000
    54 H54      1.5721  -2.2287 -12.5742   H         1 RES1   0.0000
    55 H55      2.2059  -1.0569 -11.4212   H         1 RES1   0.0000
    56 C56      4.6502  -2.5651  -7.3171   C.ar      1 RES1   0.0000
    57 H57      5.3435  -2.4472  -6.4910   H         1 RES1   0.0000
    58 C58      2.6550  -1.9054  -8.4628   C.ar      1 RES1   0.0000
    59 H59      1.7836  -1.2622  -8.5277   H         1 RES1   0.0000
    60 C60      3.9931  -3.6774  -9.3331   C.ar      1 RES1   0.0000
    61 H61      4.1825  -4.4370 -10.0843   H         1 RES1   0.0000
    62 C62      4.8773  -3.5252  -8.2784   C.ar      1 RES1   0.0000
    63 H63      5.7512  -4.1644  -8.2094   H         1 RES1   0.0000
    64 C64      3.5397  -1.7552  -7.4086   C.ar      1 RES1   0.0000
    65 H65      3.3577  -0.9980  -6.6532   H         1 RES1   0.0000
@<TRIPOS>BOND
     1     1     5   ar
     2     1     6   ar
     3     1     2    1
     4     3     8   ar
     5     3     9   ar
     6     3     4    1
     7     5     9   ar
     8     5    11    1
     9     6     8   ar
    10     6     7    1
    11     8    12    1
    12     9    10    1
    13    11    20    2
    14    11    23    1
    15    13    14    1
    16    13    23   am
    17    13    24    1
    18    14    31    1
    19    14    34    1
    20    14    15    1
    21    16    24    1
    22    16    17    1
    23    16    18    1
    24    16    19    1
    25    20    21    1
    26    20    24    1
    27    21    40   ar
    28    21    45   ar
    29    22    23    2
    30    25    34    1
    31    25    37    1
    32    25    26    1
    33    25    27    1
    34    28    31    1
    35    28    37    1
    36    28    29    1
    37    28    30    1
    38    31    32    1
    39    31    33    1
    40    34    35    1
    41    34    36    1
    42    37    38    1
    43    37    39    1
    44    40    47   ar
    45    41    45   ar
    46    41    48   ar
    47    41    42    1
    48    43    47    1
    49    43    49    1
    50    43    44    1
    51    45    46    1
    52    47    48   ar
    53    49    51    1
    54    49    52    1
    55    49    50    1
    56    51    58   ar
    57    51    60   ar
    58    52    53    1
    59    52    54    1
    60    52    55    1
    61    56    62   ar
    62    56    64   ar
    63    56    57    1
    64    58    64   ar
    65    58    59    1
    66    60    62   ar
    67    60    61    1
    68    62    63    1
    69    64    65    1
@<TRIPOS>SUBSTRUCTURE
     1 RES1        1 GROUP             0 ****  ****    0  
@<TRIPOS>MOLECULE
LIGAND_00178
    65    69     1     0     0
SMALL
USER_CHARGES
****
Generated from the CSD

@<TRIPOS>ATOM
     1 C1      -0.3701  -3.8964 -15.9918   C.ar      1 RES1   0.0000
     2 H2      -1.1642  -4.3349 -16.5863   H         1 RES1   0.0000
     3 C3       1.6297  -2.7392 -14.4773   C.ar      1 RES1   0.0000
     4 H4       2.4102  -2.2746 -13.8839   H         1 RES1   0.0000
     5 C5       0.0599  -4.5461 -14.8386   C.ar      1 RES1   0.0000
     6 C6       0.1911  -2.6974 -16.3942   C.ar      1 RES1   0.0000
     7 H7      -0.1441  -2.2032 -17.2999   H         1 RES1   0.0000
     8 C8       1.1764  -2.1489 -15.6225   C.ar      1 RES1   0.0000
     9 C9       1.0700  -3.9440 -14.0935   C.ar      1 RES1   0.0000
    10 H10      1.4331  -4.4269 -13.1935   H         1 RES1   0.0000
    11 C11     -0.5410  -5.8434 -14.3880   C.2       1 RES1   0.0000
    12 F12      1.7291  -0.9670 -16.0092   F         1 RES1   0.0000
    13 N13     -1.2406  -7.9410 -14.1570   N.am      1 RES1   0.0000
    14 C14     -1.5106  -9.4109 -14.3092   C.3       1 RES1   0.0000
    15 H15     -1.0788  -9.7376 -15.2541   H         1 RES1   0.0000
    16 C16     -2.0882  -7.8386 -11.7803   C.3       1 RES1   0.0000
    17 H17     -2.6361  -7.1177 -11.1770   H         1 RES1   0.0000
    18 H18     -2.7550  -8.6688 -12.0043   H         1 RES1   0.0000
    19 H19     -1.2602  -8.2192 -11.1860   H         1 RES1   0.0000
    20 C20     -1.1594  -5.9688 -13.1688   C.2       1 RES1   0.0000
    21 C21     -1.4160  -4.9157 -12.1531   C.ar      1 RES1   0.0000
    22 O22     -0.1808  -7.5094 -16.1020   O.2       1 RES1   0.0000
    23 C23     -0.6007  -7.1206 -15.0199   C.2       1 RES1   0.0000
    24 N24     -1.5984  -7.2184 -13.0119   N.pl3     1 RES1   0.0000
    25 C25     -1.0831 -11.6911 -13.3372   C.3       1 RES1   0.0000
    26 H26     -0.6330 -12.2197 -12.4982   H         1 RES1   0.0000
    27 H27     -0.6342 -12.0371 -14.2671   H         1 RES1   0.0000
    28 C28     -3.2435 -11.2227 -14.4622   C.3       1 RES1   0.0000
    29 H29     -2.8591 -11.5671 -15.4212   H         1 RES1   0.0000
    30 H30     -4.3132 -11.4194 -14.4081   H         1 RES1   0.0000
    31 C31     -3.0042  -9.7256 -14.3370   C.3       1 RES1   0.0000
    32 H32     -3.4589  -9.2199 -15.1875   H         1 RES1   0.0000
    33 H33     -3.4607  -9.3678 -13.4153   H         1 RES1   0.0000
    34 C34     -0.8405 -10.1997 -13.1835   C.3       1 RES1   0.0000
    35 H35     -1.2471  -9.8704 -12.2284   H         1 RES1   0.0000
    36 H36      0.2316 -10.0101 -13.2064   H         1 RES1   0.0000
    37 N37     -2.5535 -11.9614 -13.3641   N.4       1 RES1   1.0000
    38 H38     -2.9543 -11.6761 -12.4763   H         1 RES1   0.0000
    39 H39     -2.7003 -12.9568 -13.4974   H         1 RES1   0.0000
    40 N40     -2.1741  -3.8776 -12.5396   N.ar      1 RES1   0.0000
    41 C41     -1.1917  -3.9353 -10.0211   C.ar      1 RES1   0.0000
    42 H42     -0.7990  -3.9680  -9.0102   H         1 RES1   0.0000
    43 N43     -3.1319  -1.8575 -12.0297   N.pl3     1 RES1   0.0000
    44 H44     -3.4442  -1.8283 -13.0002   H         1 RES1   0.0000
    45 C45     -0.8939  -4.9825 -10.8696   C.ar      1 RES1   0.0000
    46 H46     -0.2788  -5.8165 -10.5484   H         1 RES1   0.0000
    47 C47     -2.3915  -2.9067 -11.6379   C.ar      1 RES1   0.0000
    48 N48     -1.9371  -2.8809 -10.3765   N.ar      1 RES1   0.0000
    49 C49     -3.4655  -0.7227 -11.1691   C.3       1 RES1   0.0000
    50 H50     -3.4618  -1.0618 -10.1216   H         1 RES1   0.0000
    51 C51     -4.8298  -0.1407 -11.4832   C.ar      1 RES1   0.0000
    52 C52     -2.3739   0.3266 -11.3436   C.3       1 RES1   0.0000
    53 H53     -2.5555   1.1837 -10.6986   H         1 RES1   0.0000
    54 H54     -1.3979  -0.0844 -11.0941   H         1 RES1   0.0000
    55 H55     -2.3402   0.6785 -12.3726   H         1 RES1   0.0000
    56 C56     -7.3345   0.9251 -12.0753   C.ar      1 RES1   0.0000
    57 H57     -8.3104   1.3396 -12.3056   H         1 RES1   0.0000
    58 C58     -5.3119  -0.1404 -12.7842   C.ar      1 RES1   0.0000
    59 H59     -4.7058  -0.5599 -13.5803   H         1 RES1   0.0000
    60 C60     -5.6233   0.4047 -10.4833   C.ar      1 RES1   0.0000
    61 H61     -5.2667   0.4173  -9.4587   H         1 RES1   0.0000
    62 C62     -6.8683   0.9338 -10.7791   C.ar      1 RES1   0.0000
    63 H63     -7.4779   1.3562  -9.9872   H         1 RES1   0.0000
    64 C64     -6.5573   0.3884 -13.0779   C.ar      1 RES1   0.0000
    65 H65     -6.9214   0.3798 -14.0998   H         1 RES1   0.0000
@<TRIPOS>BOND
     1     1     5   ar
     2     1     6   ar
     3     1     2    1
     4     3     8   ar
     5     3     9   ar
     6     3     4    1
     7     5     9   ar
     8     5    11    1
     9     6     8   ar
    10     6     7    1
    11     8    12    1
    12     9    10    1
    13    11    20    2
    14    11    23    1
    15    13    14    1
    16    13    23   am
    17    13    24    1
    18    14    31    1
    19    14    34    1
    20    14    15    1
    21    16    24    1
    22    16    17    1
    23    16    18    1
    24    16    19    1
    25    20    21    1
    26    20    24    1
    27    21    40   ar
    28    21    45   ar
    29    22    23    2
    30    25    34    1
    31    25    37    1
    32    25    26    1
    33    25    27    1
    34    28    31    1
    35    28    37    1
    36    28    29    1
    37    28    30    1
    38    31    32    1
    39    31    33    1
    40    34    35    1
    41    34    36    1
    42    37    38    1
    43    37    39    1
    44    40    47   ar
    45    41    45   ar
    46    41    48   ar
    47    41    42    1
    48    43    47    1
    49    43    49    1
    50    43    44    1
    51    45    46    1
    52    47    48   ar
    53    49    51    1
    54    49    52    1
    55    49    50    1
    56    51    58   ar
    57    51    60   ar
    58    52    53    1
    59    52    54    1
    60    52    55    1
    61    56    62   ar
    62    56    64   ar
    63    56    57    1
    64    58    64   ar
    65    58    59    1
    66    60    62   ar
    67    60    61    1
    68    62    63    1
    69    64    65    1
@<TRIPOS>SUBSTRUCTURE
     1 RES1        1 GROUP             0 ****  ****    0  
@<TRIPOS>MOLECULE
LIGAND_00179
    65    69     1     0     0
SMALL
USER_CHARGES
****
Generated from the CSD

@<TRIPOS>ATOM
     1 C1      -0.3701  -3.8964 -15.9918   C.ar      1 RES1   0.0000
     2 H2      -1.1642  -4.3349 -16.5863   H         1 RES1   0.0000
     3 C3       1.6297  -2.7392 -14.4773   C.ar      1 RES1   0.0000
     4 H4       2.4102  -2.2746 -13.8839   H         1 RES1   0.0000
     5 C5       0.0599  -4.5461 -14.8386   C.ar      1 RES1   0.0000
     6 C6       0.1911  -2.6974 -16.3942   C.ar      1 RES1   0.0000
     7 H7      -0.1441  -2.2032 -17.2999   H         1 RES1   0.0000
     8 C8       1.1764  -2.1489 -15.6225   C.ar      1 RES1   0.0000
     9 C9       1.0700  -3.9440 -14.0935   C.ar      1 RES1   0.0000
    10 H10      1.4331  -4.4269 -13.1935   H         1 RES1   0.0000
    11 C11     -0.5410  -5.8434 -14.3880   C.2       1 RES1   0.0000
    12 F12      1.7291  -0.9670 -16.0092   F         1 RES1   0.0000
    13 N13     -1.2406  -7.9410 -14.1570   N.am      1 RES1   0.0000
    14 C14     -1.5106  -9.4109 -14.3092   C.3       1 RES1   0.0000
    15 H15     -1.0789  -9.7376 -15.2541   H         1 RES1   0.0000
    16 C16     -2.0882  -7.8386 -11.7803   C.3       1 RES1   0.0000
    17 H17     -2.6361  -7.1177 -11.1770   H         1 RES1   0.0000
    18 H18     -2.7550  -8.6688 -12.0043   H         1 RES1   0.0000
    19 H19     -1.2602  -8.2192 -11.1860   H         1 RES1   0.0000
    20 C20     -1.1594  -5.9688 -13.1688   C.2       1 RES1   0.0000
    21 C21     -1.4160  -4.9157 -12.1531   C.ar      1 RES1   0.0000
    22 O22     -0.1808  -7.5094 -16.1020   O.2       1 RES1   0.0000
    23 C23     -0.6007  -7.1206 -15.0199   C.2       1 RES1   0.0000
    24 N24     -1.5984  -7.2184 -13.0119   N.pl3     1 RES1   0.0000
    25 C25     -1.0830 -11.6911 -13.3373   C.3       1 RES1   0.0000
    26 H26     -0.6329 -12.2197 -12.4983   H         1 RES1   0.0000
    27 H27     -0.6342 -12.0371 -14.2672   H         1 RES1   0.0000
    28 C28     -3.2434 -11.2227 -14.4621   C.3       1 RES1   0.0000
    29 H29     -2.8591 -11.5671 -15.4211   H         1 RES1   0.0000
    30 H30     -4.3132 -11.4194 -14.4080   H         1 RES1   0.0000
    31 C31     -3.0042  -9.7256 -14.3369   C.3       1 RES1   0.0000
    32 H32     -3.4590  -9.2199 -15.1874   H         1 RES1   0.0000
    33 H33     -3.4607  -9.3679 -13.4152   H         1 RES1   0.0000
    34 C34     -0.8405 -10.1997 -13.1836   C.3       1 RES1   0.0000
    35 H35     -1.2469  -9.8705 -12.2284   H         1 RES1   0.0000
    36 H36      0.2317 -10.0101 -13.2065   H         1 RES1   0.0000
    37 N37     -2.5534 -11.9614 -13.3640   N.4       1 RES1   1.0000
    38 H38     -2.9542 -11.6762 -12.4762   H         1 RES1   0.0000
    39 H39     -2.7002 -12.9568 -13.4973   H         1 RES1   0.0000
    40 N40     -2.1741  -3.8776 -12.5396   N.ar      1 RES1   0.0000
    41 C41     -1.1917  -3.9353 -10.0211   C.ar      1 RES1   0.0000
    42 H42     -0.7990  -3.9680  -9.0102   H         1 RES1   0.0000
    43 N43     -3.1319  -1.8575 -12.0297   N.pl3     1 RES1   0.0000
    44 H44     -3.3456  -1.1383 -11.3387   H         1 RES1   0.0000
    45 C45     -0.8939  -4.9825 -10.8696   C.ar      1 RES1   0.0000
    46 H46     -0.2788  -5.8165 -10.5484   H         1 RES1   0.0000
    47 C47     -2.3915  -2.9067 -11.6379   C.ar      1 RES1   0.0000
    48 N48     -1.9371  -2.8809 -10.3765   N.ar      1 RES1   0.0000
    49 C49     -3.7040  -1.7121 -13.3681   C.3       1 RES1   0.0000
    50 H50     -3.0791  -2.2718 -14.0812   H         1 RES1   0.0000
    51 C51     -3.7683  -0.2648 -13.8150   C.ar      1 RES1   0.0000
    52 C52     -5.0943  -2.3365 -13.3469   C.3       1 RES1   0.0000
    53 H53     -5.5558  -2.2849 -14.3307   H         1 RES1   0.0000
    54 H54     -5.0451  -3.3821 -13.0501   H         1 RES1   0.0000
    55 H55     -5.7391  -1.8147 -12.6428   H         1 RES1   0.0000
    56 C56     -3.8889   2.3989 -14.6216   C.ar      1 RES1   0.0000
    57 H57     -3.9352   3.4363 -14.9357   H         1 RES1   0.0000
    58 C58     -3.9930   0.7470 -12.8926   C.ar      1 RES1   0.0000
    59 H59     -4.1237   0.4975 -11.8448   H         1 RES1   0.0000
    60 C60     -3.6074   0.0805 -15.1498   C.ar      1 RES1   0.0000
    61 H61     -3.4325  -0.6936 -15.8896   H         1 RES1   0.0000
    62 C62     -3.6673   1.4049 -15.5492   C.ar      1 RES1   0.0000
    63 H63     -3.5391   1.6600 -16.5959   H         1 RES1   0.0000
    64 C64     -4.0517   2.0708 -13.2937   C.ar      1 RES1   0.0000
    65 H65     -4.2264   2.8511 -12.5603   H         1 RES1   0.0000
@<TRIPOS>BOND
     1     1     5   ar
     2     1     6   ar
     3     1     2    1
     4     3     8   ar
     5     3     9   ar
     6     3     4    1
     7     5     9   ar
     8     5    11    1
     9     6     8   ar
    10     6     7    1
    11     8    12    1
    12     9    10    1
    13    11    20    2
    14    11    23    1
    15    13    14    1
    16    13    23   am
    17    13    24    1
    18    14    31    1
    19    14    34    1
    20    14    15    1
    21    16    24    1
    22    16    17    1
    23    16    18    1
    24    16    19    1
    25    20    21    1
    26    20    24    1
    27    21    40   ar
    28    21    45   ar
    29    22    23    2
    30    25    34    1
    31    25    37    1
    32    25    26    1
    33    25    27    1
    34    28    31    1
    35    28    37    1
    36    28    29    1
    37    28    30    1
    38    31    32    1
    39    31    33    1
    40    34    35    1
    41    34    36    1
    42    37    38    1
    43    37    39    1
    44    40    47   ar
    45    41    45   ar
    46    41    48   ar
    47    41    42    1
    48    43    47    1
    49    43    49    1
    50    43    44    1
    51    45    46    1
    52    47    48   ar
    53    49    51    1
    54    49    52    1
    55    49    50    1
    56    51    58   ar
    57    51    60   ar
    58    52    53    1
    59    52    54    1
    60    52    55    1
    61    56    62   ar
    62    56    64   ar
    63    56    57    1
    64    58    64   ar
    65    58    59    1
    66    60    62   ar
    67    60    61    1
    68    62    63    1
    69    64    65    1
@<TRIPOS>SUBSTRUCTURE
     1 RES1        1 GROUP             0 ****  ****    0  
@<TRIPOS>MOLECULE
LIGAND_00180
    65    69     1     0     0
SMALL
USER_CHARGES
****
Generated from the CSD

@<TRIPOS>ATOM
     1 C1      -0.6097  -3.4053 -15.0056   C.ar      1 RES1   0.0000
     2 H2      -1.6831  -3.4240 -14.8511   H         1 RES1   0.0000
     3 C3       2.1271  -3.3200 -15.3718   C.ar      1 RES1   0.0000
     4 H4       3.2024  -3.2766 -15.5104   H         1 RES1   0.0000
     5 C5       0.1315  -4.5653 -14.8006   C.ar      1 RES1   0.0000
     6 C6      -0.0046  -2.2244 -15.3976   C.ar      1 RES1   0.0000
     7 H7      -0.5921  -1.3276 -15.5643   H         1 RES1   0.0000
     8 C8       1.3511  -2.2134 -15.5680   C.ar      1 RES1   0.0000
     9 C9       1.5084  -4.4974 -14.9934   C.ar      1 RES1   0.0000
    10 H10      2.1146  -5.3845 -14.8490   H         1 RES1   0.0000
    11 C11     -0.5094  -5.8510 -14.3722   C.2       1 RES1   0.0000
    12 F12      1.9536  -1.0540 -15.9481   F         1 RES1   0.0000
    13 N13     -1.2621  -7.9332 -14.1706   N.am      1 RES1   0.0000
    14 C14     -1.5618  -9.3956 -14.3380   C.3       1 RES1   0.0000
    15 H15     -1.1151  -9.7270 -15.2743   H         1 RES1   0.0000
    16 C16     -2.1634  -7.8244 -11.8140   C.3       1 RES1   0.0000
    17 H17     -2.7090  -7.0945 -11.2196   H         1 RES1   0.0000
    18 H18     -2.8434  -8.6379 -12.0588   H         1 RES1   0.0000
    19 H19     -1.3587  -8.2271 -11.2026   H         1 RES1   0.0000
    20 C20     -1.1594  -5.9688 -13.1688   C.2       1 RES1   0.0000
    21 C21     -1.4160  -4.9157 -12.1531   C.ar      1 RES1   0.0000
    22 O22     -0.1467  -7.5152 -16.0873   O.2       1 RES1   0.0000
    23 C23     -0.5832  -7.1229 -15.0131   C.2       1 RES1   0.0000
    24 N24     -1.6305  -7.2089 -13.0299   N.pl3     1 RES1   0.0000
    25 C25     -1.2099 -11.6903 -13.3699   C.3       1 RES1   0.0000
    26 H26     -0.7922 -12.2337 -12.5236   H         1 RES1   0.0000
    27 H27     -0.7469 -12.0415 -14.2909   H         1 RES1   0.0000
    28 C28     -3.3314 -11.1662 -14.5432   C.3       1 RES1   0.0000
    29 H29     -2.9322 -11.5141 -15.4947   H         1 RES1   0.0000
    30 H30     -4.4064 -11.3386 -14.5158   H         1 RES1   0.0000
    31 C31     -3.0611  -9.6758 -14.4033   C.3       1 RES1   0.0000
    32 H32     -3.4837  -9.1550 -15.2613   H         1 RES1   0.0000
    33 H33     -3.5313  -9.3126 -13.4906   H         1 RES1   0.0000
    34 C34     -0.9371 -10.2058 -13.2015   C.3       1 RES1   0.0000
    35 H35     -1.3587  -9.8725 -12.2544   H         1 RES1   0.0000
    36 H36      0.1393 -10.0407 -13.1977   H         1 RES1   0.0000
    37 N37     -2.6850 -11.9266 -13.4334   N.4       1 RES1   1.0000
    38 H38     -3.1004 -11.6371 -12.5537   H         1 RES1   0.0000
    39 H39     -2.8513 -12.9176 -13.5761   H         1 RES1   0.0000
    40 N40     -2.1741  -3.8776 -12.5396   N.ar      1 RES1   0.0000
    41 C41     -1.1917  -3.9353 -10.0211   C.ar      1 RES1   0.0000
    42 H42     -0.7990  -3.9680  -9.0102   H         1 RES1   0.0000
    43 N43     -3.1319  -1.8575 -12.0297   N.pl3     1 RES1   0.0000
    44 H44     -3.4442  -1.8283 -13.0003   H         1 RES1   0.0000
    45 C45     -0.8939  -4.9825 -10.8696   C.ar      1 RES1   0.0000
    46 H46     -0.2788  -5.8165 -10.5484   H         1 RES1   0.0000
    47 C47     -2.3915  -2.9067 -11.6379   C.ar      1 RES1   0.0000
    48 N48     -1.9371  -2.8809 -10.3765   N.ar      1 RES1   0.0000
    49 C49     -3.4656  -0.7228 -11.1691   C.3       1 RES1   0.0000
    50 H50     -3.4626  -1.0620 -10.1216   H         1 RES1   0.0000
    51 C51     -4.8295  -0.1402 -11.4838   C.ar      1 RES1   0.0000
    52 C52     -2.3735   0.3262 -11.3427   C.3       1 RES1   0.0000
    53 H53     -2.5552   1.1833 -10.6977   H         1 RES1   0.0000
    54 H54     -1.3978  -0.0852 -11.0928   H         1 RES1   0.0000
    55 H55     -2.3391   0.6782 -12.3716   H         1 RES1   0.0000
    56 C56     -7.3335   0.9267 -12.0772   C.ar      1 RES1   0.0000
    57 H57     -8.3090   1.3416 -12.3080   H         1 RES1   0.0000
    58 C58     -5.3108  -0.1393 -12.7851   C.ar      1 RES1   0.0000
    59 H59     -4.7043  -0.5587 -13.5811   H         1 RES1   0.0000
    60 C60     -5.6235   0.4051 -10.4843   C.ar      1 RES1   0.0000
    61 H61     -5.2675   0.4172  -9.4595   H         1 RES1   0.0000
    62 C62     -6.8681   0.9347 -10.7807   C.ar      1 RES1   0.0000
    63 H63     -7.4780   1.3570  -9.9891   H         1 RES1   0.0000
    64 C64     -6.5558   0.3900 -13.0795   C.ar      1 RES1   0.0000
    65 H65     -6.9192   0.3819 -14.1017   H         1 RES1   0.0000
@<TRIPOS>BOND
     1     1     5   ar
     2     1     6   ar
     3     1     2    1
     4     3     8   ar
     5     3     9   ar
     6     3     4    1
     7     5     9   ar
     8     5    11    1
     9     6     8   ar
    10     6     7    1
    11     8    12    1
    12     9    10    1
    13    11    20    2
    14    11    23    1
    15    13    14    1
    16    13    23   am
    17    13    24    1
    18    14    31    1
    19    14    34    1
    20    14    15    1
    21    16    24    1
    22    16    17    1
    23    16    18    1
    24    16    19    1
    25    20    21    1
    26    20    24    1
    27    21    40   ar
    28    21    45   ar
    29    22    23    2
    30    25    34    1
    31    25    37    1
    32    25    26    1
    33    25    27    1
    34    28    31    1
    35    28    37    1
    36    28    29    1
    37    28    30    1
    38    31    32    1
    39    31    33    1
    40    34    35    1
    41    34    36    1
    42    37    38    1
    43    37    39    1
    44    40    47   ar
    45    41    45   ar
    46    41    48   ar
    47    41    42    1
    48    43    47    1
    49    43    49    1
    50    43    44    1
    51    45    46    1
    52    47    48   ar
    53    49    51    1
    54    49    52    1
    55    49    50    1
    56    51    58   ar
    57    51    60   ar
    58    52    53    1
    59    52    54    1
    60    52    55    1
    61    56    62   ar
    62    56    64   ar
    63    56    57    1
    64    58    64   ar
    65    58    59    1
    66    60    62   ar
    67    60    61    1
    68    62    63    1
    69    64    65    1
@<TRIPOS>SUBSTRUCTURE
     1 RES1        1 GROUP             0 ****  ****    0  
@<TRIPOS>MOLECULE
LIGAND_00181
    65    69     1     0     0
SMALL
USER_CHARGES
****
Generated from the CSD

@<TRIPOS>ATOM
     1 C1      -0.5979  -3.4057 -15.0027   C.ar      1 RES1   0.0000
     2 H2      -1.6718  -3.4217 -14.8514   H         1 RES1   0.0000
     3 C3       2.1403  -3.3272 -15.3606   C.ar      1 RES1   0.0000
     4 H4       3.2160  -3.2864 -15.4960   H         1 RES1   0.0000
     5 C5       0.1397  -4.5676 -14.7961   C.ar      1 RES1   0.0000
     6 C6       0.0114  -2.2260 -15.3922   C.ar      1 RES1   0.0000
     7 H7      -0.5732  -1.3277 -15.5602   H         1 RES1   0.0000
     8 C8       1.3677  -2.2185 -15.5585   C.ar      1 RES1   0.0000
     9 C9       1.5174  -4.5032 -14.9847   C.ar      1 RES1   0.0000
    10 H10      2.1208  -5.3919 -14.8389   H         1 RES1   0.0000
    11 C11     -0.5058  -5.8519 -14.3704   C.2       1 RES1   0.0000
    12 F12      1.9743  -1.0604 -15.9362   F         1 RES1   0.0000
    13 N13     -1.2645  -7.9322 -14.1722   N.am      1 RES1   0.0000
    14 C14     -1.5677  -9.3937 -14.3414   C.3       1 RES1   0.0000
    15 H15     -1.1194  -9.7257 -15.2768   H         1 RES1   0.0000
    16 C16     -2.1721  -7.8227 -11.8181   C.3       1 RES1   0.0000
    17 H17     -2.7174  -7.0917 -11.2247   H         1 RES1   0.0000
    18 H18     -2.8534  -8.6342 -12.0652   H         1 RES1   0.0000
    19 H19     -1.3701  -8.2278 -11.2046   H         1 RES1   0.0000
    20 C20     -1.1594  -5.9688 -13.1688   C.2       1 RES1   0.0000
    21 C21     -1.4160  -4.9157 -12.1531   C.ar      1 RES1   0.0000
    22 O22     -0.1428  -7.5160 -16.0856   O.2       1 RES1   0.0000
    23 C23     -0.5812  -7.1232 -15.0123   C.2       1 RES1   0.0000
    24 N24     -1.6341  -7.2077 -13.0320   N.pl3     1 RES1   0.0000
    25 C25     -1.2244 -11.6901 -13.3740   C.3       1 RES1   0.0000
    26 H26     -0.8104 -12.2351 -12.5270   H         1 RES1   0.0000
    27 H27     -0.7599 -12.0418 -14.2941   H         1 RES1   0.0000
    28 C28     -3.3415 -11.1595 -14.5525   C.3       1 RES1   0.0000
    29 H29     -2.9406 -11.5078 -15.5033   H         1 RES1   0.0000
    30 H30     -4.4169 -11.3291 -14.5281   H         1 RES1   0.0000
    31 C31     -3.0675  -9.6699 -14.4108   C.3       1 RES1   0.0000
    32 H32     -3.4865  -9.1475 -15.2696   H         1 RES1   0.0000
    33 H33     -3.5392  -9.3062 -13.4991   H         1 RES1   0.0000
    34 C34     -0.9481 -10.2063 -13.2038   C.3       1 RES1   0.0000
    35 H35     -1.3714  -9.8726 -12.2576   H         1 RES1   0.0000
    36 H36      0.1287 -10.0442 -13.1971   H         1 RES1   0.0000
    37 N37     -2.6999 -11.9224 -13.4415   N.4       1 RES1   1.0000
    38 H38     -3.1169 -11.6324 -12.5627   H         1 RES1   0.0000
    39 H39     -2.8685 -12.9129 -13.5854   H         1 RES1   0.0000
    40 N40     -2.1741  -3.8776 -12.5396   N.ar      1 RES1   0.0000
    41 C41     -1.1917  -3.9353 -10.0211   C.ar      1 RES1   0.0000
    42 H42     -0.7990  -3.9680  -9.0102   H         1 RES1   0.0000
    43 N43     -3.1319  -1.8575 -12.0297   N.pl3     1 RES1   0.0000
    44 H44     -3.3441  -1.1374 -11.3392   H         1 RES1   0.0000
    45 C45     -0.8939  -4.9825 -10.8696   C.ar      1 RES1   0.0000
    46 H46     -0.2788  -5.8165 -10.5484   H         1 RES1   0.0000
    47 C47     -2.3915  -2.9067 -11.6379   C.ar      1 RES1   0.0000
    48 N48     -1.9371  -2.8809 -10.3765   N.ar      1 RES1   0.0000
    49 C49     -3.7061  -1.7133 -13.3673   C.3       1 RES1   0.0000
    50 H50     -3.0828  -2.2743 -14.0808   H         1 RES1   0.0000
    51 C51     -3.7700  -0.2665 -13.8159   C.ar      1 RES1   0.0000
    52 C52     -5.0968  -2.3366 -13.3431   C.3       1 RES1   0.0000
    53 H53     -5.5599  -2.2858 -14.3263   H         1 RES1   0.0000
    54 H54     -5.0479  -3.3818 -13.0451   H         1 RES1   0.0000
    55 H55     -5.7400  -1.8134 -12.6386   H         1 RES1   0.0000
    56 C56     -3.8899   2.3963 -14.6255   C.ar      1 RES1   0.0000
    57 H57     -3.9358   3.4334 -14.9409   H         1 RES1   0.0000
    58 C58     -3.9925   0.7466 -12.8944   C.ar      1 RES1   0.0000
    59 H59     -4.1217   0.4985 -11.8461   H         1 RES1   0.0000
    60 C60     -3.6109   0.0770 -15.1514   C.ar      1 RES1   0.0000
    61 H61     -3.4376  -0.6981 -15.8905   H         1 RES1   0.0000
    62 C62     -3.6704   1.4011 -15.5523   C.ar      1 RES1   0.0000
    63 H63     -3.5436   1.6548 -16.5995   H         1 RES1   0.0000
    64 C64     -4.0509   2.0700 -13.2969   C.ar      1 RES1   0.0000
    65 H65     -4.2238   2.8512 -12.5643   H         1 RES1   0.0000
@<TRIPOS>BOND
     1     1     5   ar
     2     1     6   ar
     3     1     2    1
     4     3     8   ar
     5     3     9   ar
     6     3     4    1
     7     5     9   ar
     8     5    11    1
     9     6     8   ar
    10     6     7    1
    11     8    12    1
    12     9    10    1
    13    11    20    2
    14    11    23    1
    15    13    14    1
    16    13    23   am
    17    13    24    1
    18    14    31    1
    19    14    34    1
    20    14    15    1
    21    16    24    1
    22    16    17    1
    23    16    18    1
    24    16    19    1
    25    20    21    1
    26    20    24    1
    27    21    40   ar
    28    21    45   ar
    29    22    23    2
    30    25    34    1
    31    25    37    1
    32    25    26    1
    33    25    27    1
    34    28    31    1
    35    28    37    1
    36    28    29    1
    37    28    30    1
    38    31    32    1
    39    31    33    1
    40    34    35    1
    41    34    36    1
    42    37    38    1
    43    37    39    1
    44    40    47   ar
    45    41    45   ar
    46    41    48   ar
    47    41    42    1
    48    43    47    1
    49    43    49    1
    50    43    44    1
    51    45    46    1
    52    47    48   ar
    53    49    51    1
    54    49    52    1
    55    49    50    1
    56    51    58   ar
    57    51    60   ar
    58    52    53    1
    59    52    54    1
    60    52    55    1
    61    56    62   ar
    62    56    64   ar
    63    56    57    1
    64    58    64   ar
    65    58    59    1
    66    60    62   ar
    67    60    61    1
    68    62    63    1
    69    64    65    1
@<TRIPOS>SUBSTRUCTURE
     1 RES1        1 GROUP             0 ****  ****    0  
@<TRIPOS>MOLECULE
LIGAND_00182
    65    69     1     0     0
SMALL
USER_CHARGES
****
Generated from the CSD

@<TRIPOS>ATOM
     1 C1      -0.5136  -3.8749 -15.9967   C.ar      1 RES1   0.0000
     2 H2      -1.3346  -4.3179 -16.5501   H         1 RES1   0.0000
     3 C3       1.5540  -2.7064 -14.5855   C.ar      1 RES1   0.0000
     4 H4       2.3610  -2.2375 -14.0323   H         1 RES1   0.0000
     5 C5      -0.0128  -4.5288 -14.8749   C.ar      1 RES1   0.0000
     6 C6       0.0107  -2.6661 -16.4191   C.ar      1 RES1   0.0000
     7 H7      -0.3799  -2.1686 -17.3005   H         1 RES1   0.0000
     8 C8       1.0311  -2.1123 -15.6985   C.ar      1 RES1   0.0000
     9 C9       1.0302  -3.9209 -14.1818   C.ar      1 RES1   0.0000
    10 H10      1.4482  -4.4068 -13.3076   H         1 RES1   0.0000
    11 C11     -0.5730  -5.8368 -14.4030   C.2       1 RES1   0.0000
    12 F12      1.5480  -0.9209 -16.1050   F         1 RES1   0.0000
    13 N13     -1.2187  -7.9483 -14.1440   N.am      1 RES1   0.0000
    14 C14     -1.4584  -9.4249 -14.2816   C.3       1 RES1   0.0000
    15 H15     -1.0416  -9.7474 -15.2346   H         1 RES1   0.0000
    16 C16     -2.0120  -7.8509 -11.7484   C.3       1 RES1   0.0000
    17 H17     -2.5618  -7.1390 -11.1362   H         1 RES1   0.0000
    18 H18     -2.6647  -8.6973 -11.9519   H         1 RES1   0.0000
    19 H19     -1.1617  -8.2089 -11.1719   H         1 RES1   0.0000
    20 C20     -1.1594  -5.9688 -13.1688   C.2       1 RES1   0.0000
    21 C21     -1.4160  -4.9157 -12.1531   C.ar      1 RES1   0.0000
    22 O22     -0.2153  -7.5044 -16.1159   O.2       1 RES1   0.0000
    23 C23     -0.6184  -7.1188 -15.0263   C.2       1 RES1   0.0000
    24 N24     -1.5658  -7.2271 -12.9946   N.pl3     1 RES1   0.0000
    25 C25     -0.9561 -11.6888 -13.3074   C.3       1 RES1   0.0000
    26 H26     -0.4744 -12.2018 -12.4763   H         1 RES1   0.0000
    27 H27     -0.5214 -12.0301 -14.2457   H         1 RES1   0.0000
    28 C28     -3.1524 -11.2765 -14.3836   C.3       1 RES1   0.0000
    29 H29     -2.7829 -11.6179 -15.3494   H         1 RES1   0.0000
    30 H30     -4.2158 -11.4972 -14.3031   H         1 RES1   0.0000
    31 C31     -2.9446  -9.7737 -14.2723   C.3       1 RES1   0.0000
    32 H32     -3.4307  -9.2836 -15.1146   H         1 RES1   0.0000
    33 H33     -3.3875  -9.4208 -13.3421   H         1 RES1   0.0000
    34 C34     -0.7442 -10.1914 -13.1677   C.3       1 RES1   0.0000
    35 H35     -1.1356  -9.8656 -12.2051   H         1 RES1   0.0000
    36 H36      0.3225  -9.9775 -13.2170   H         1 RES1   0.0000
    37 N37     -2.4201 -11.9926 -13.2980   N.4       1 RES1   1.0000
    38 H38     -2.8064 -11.7112 -12.4026   H         1 RES1   0.0000
    39 H39     -2.5472 -12.9919 -13.4223   H         1 RES1   0.0000
    40 N40     -0.3411  -4.2871 -11.6519   N.ar      1 RES1   0.0000
    41 C41     -2.8045  -3.6095 -10.7664   C.ar      1 RES1   0.0000
    42 H42     -3.7964  -3.3386 -10.4200   H         1 RES1   0.0000
    43 N43      0.5165  -2.7366 -10.1964   N.pl3     1 RES1   0.0000
    44 H44      1.4385  -3.0474 -10.5027   H         1 RES1   0.0000
    45 C45     -2.6965  -4.5965 -11.7253   C.ar      1 RES1   0.0000
    46 H46     -3.5713  -5.1000 -12.1232   H         1 RES1   0.0000
    47 C47     -0.5591  -3.3512 -10.7141   C.ar      1 RES1   0.0000
    48 N48     -1.7533  -2.9686 -10.2391   N.ar      1 RES1   0.0000
    49 C49      0.4510  -1.6924  -9.1741   C.3       1 RES1   0.0000
    50 H50     -0.5178  -1.1763  -9.2591   H         1 RES1   0.0000
    51 C51      1.5585  -0.6678  -9.3227   C.ar      1 RES1   0.0000
    52 C52      0.5202  -2.3737  -7.8124   C.3       1 RES1   0.0000
    53 H53      0.4427  -1.6426  -7.0104   H         1 RES1   0.0000
    54 H54     -0.2895  -3.0910  -7.6963   H         1 RES1   0.0000
    55 H55      1.4626  -2.9049  -7.6961   H         1 RES1   0.0000
    56 C56      3.6029   1.2038  -9.6011   C.ar      1 RES1   0.0000
    57 H57      4.3989   1.9330  -9.7102   H         1 RES1   0.0000
    58 C58      2.8074  -1.0453  -9.7947   C.ar      1 RES1   0.0000
    59 H59      2.9899  -2.0819 -10.0579   H         1 RES1   0.0000
    60 C60      1.3516   0.6639  -8.9900   C.ar      1 RES1   0.0000
    61 H61      0.3838   0.9823  -8.6172   H         1 RES1   0.0000
    62 C62      2.3687   1.5932  -9.1292   C.ar      1 RES1   0.0000
    63 H63      2.1924   2.6307  -8.8659   H         1 RES1   0.0000
    64 C64      3.8229  -0.1146  -9.9340   C.ar      1 RES1   0.0000
    65 H65      4.7937  -0.4247 -10.3060   H         1 RES1   0.0000
@<TRIPOS>BOND
     1     1     5   ar
     2     1     6   ar
     3     1     2    1
     4     3     8   ar
     5     3     9   ar
     6     3     4    1
     7     5     9   ar
     8     5    11    1
     9     6     8   ar
    10     6     7    1
    11     8    12    1
    12     9    10    1
    13    11    20    2
    14    11    23    1
    15    13    14    1
    16    13    23   am
    17    13    24    1
    18    14    31    1
    19    14    34    1
    20    14    15    1
    21    16    24    1
    22    16    17    1
    23    16    18    1
    24    16    19    1
    25    20    21    1
    26    20    24    1
    27    21    40   ar
    28    21    45   ar
    29    22    23    2
    30    25    34    1
    31    25    37    1
    32    25    26    1
    33    25    27    1
    34    28    31    1
    35    28    37    1
    36    28    29    1
    37    28    30    1
    38    31    32    1
    39    31    33    1
    40    34    35    1
    41    34    36    1
    42    37    38    1
    43    37    39    1
    44    40    47   ar
    45    41    45   ar
    46    41    48   ar
    47    41    42    1
    48    43    47    1
    49    43    49    1
    50    43    44    1
    51    45    46    1
    52    47    48   ar
    53    49    51    1
    54    49    52    1
    55    49    50    1
    56    51    58   ar
    57    51    60   ar
    58    52    53    1
    59    52    54    1
    60    52    55    1
    61    56    62   ar
    62    56    64   ar
    63    56    57    1
    64    58    64   ar
    65    58    59    1
    66    60    62   ar
    67    60    61    1
    68    62    63    1
    69    64    65    1
@<TRIPOS>SUBSTRUCTURE
     1 RES1        1 GROUP             0 ****  ****    0  
@<TRIPOS>MOLECULE
LIGAND_00183
    65    69     1     0     0
SMALL
USER_CHARGES
****
Generated from the CSD

@<TRIPOS>ATOM
     1 C1      -1.4024  -4.1339 -11.7842   C.ar      1 RES1   0.0000
     2 H2      -0.9065  -4.8893 -11.1843   H         1 RES1   0.0000
     3 C3      -2.6323  -2.1793 -13.3003   C.ar      1 RES1   0.0000
     4 H4      -3.1082  -1.4039 -13.8916   H         1 RES1   0.0000
     5 C5      -1.7520  -4.4252 -13.0994   C.ar      1 RES1   0.0000
     6 C6      -1.6692  -2.8964 -11.2257   C.ar      1 RES1   0.0000
     7 H7      -1.4015  -2.6818 -10.1965   H         1 RES1   0.0000
     8 C8      -2.2762  -1.9497 -12.0020   C.ar      1 RES1   0.0000
     9 C9      -2.3723  -3.4247 -13.8422   C.ar      1 RES1   0.0000
    10 H10     -2.6641  -3.6207 -14.8677   H         1 RES1   0.0000
    11 C11     -1.4661  -5.7599 -13.7192   C.2       1 RES1   0.0000
    12 F12     -2.5367  -0.7284 -11.4610   F         1 RES1   0.0000
    13 N13     -1.2406  -7.9410 -14.1570   N.am      1 RES1   0.0000
    14 C14     -1.5106  -9.4109 -14.3092   C.3       1 RES1   0.0000
    15 H15     -1.0875  -9.7356 -15.2587   H         1 RES1   0.0000
    16 C16      0.5880  -7.8074 -15.7832   C.3       1 RES1   0.0000
    17 H17      1.2763  -7.0322 -16.1137   H         1 RES1   0.0000
    18 H18      1.1101  -8.4419 -15.0699   H         1 RES1   0.0000
    19 H19      0.3209  -8.4146 -16.6455   H         1 RES1   0.0000
    20 C20     -0.6831  -5.9011 -14.8182   C.2       1 RES1   0.0000
    21 C21      0.0470  -4.8479 -15.5693   C.ar      1 RES1   0.0000
    22 O22     -2.6001  -7.4331 -12.3638   O.2       1 RES1   0.0000
    23 C23     -1.8681  -7.0711 -13.2757   C.2       1 RES1   0.0000
    24 N24     -0.6058  -7.2168 -15.1771   N.3       1 RES1   0.0000
    25 C25     -1.0717 -11.6924 -13.3453   C.3       1 RES1   0.0000
    26 H26     -0.6132 -12.2219 -12.5115   H         1 RES1   0.0000
    27 H27     -0.6313 -12.0363 -14.2800   H         1 RES1   0.0000
    28 C28     -3.2431 -11.2241 -14.4490   C.3       1 RES1   0.0000
    29 H29     -2.8674 -11.5665 -15.4121   H         1 RES1   0.0000
    30 H30     -4.3120 -11.4220 -14.3851   H         1 RES1   0.0000
    31 C31     -3.0040  -9.7270 -14.3234   C.3       1 RES1   0.0000
    32 H32     -3.4673  -9.2203 -15.1687   H         1 RES1   0.0000
    33 H33     -3.4522  -9.3713 -13.3968   H         1 RES1   0.0000
    34 C34     -0.8291 -10.2010 -13.1913   C.3       1 RES1   0.0000
    35 H35     -1.2269  -9.8738 -12.2318   H         1 RES1   0.0000
    36 H36      0.2425 -10.0103 -13.2240   H         1 RES1   0.0000
    37 N37     -2.5420 -11.9640 -13.3587   N.4       1 RES1   1.0000
    38 H38     -2.9347 -11.6807 -12.4667   H         1 RES1   0.0000
    39 H39     -2.6891 -12.9594 -13.4923   H         1 RES1   0.0000
    40 N40      1.3010  -4.5830 -15.1707   N.ar      1 RES1   0.0000
    41 C41      0.2444  -3.1900 -17.2334   C.ar      1 RES1   0.0000
    42 H42     -0.1839  -2.6391 -18.0643   H         1 RES1   0.0000
    43 N43      3.2085  -3.3339 -15.4142   N.pl3     1 RES1   0.0000
    44 H44      3.5684  -3.8350 -14.6020   H         1 RES1   0.0000
    45 C45     -0.5307  -4.1558 -16.6237   C.ar      1 RES1   0.0000
    46 H46     -1.5440  -4.3616 -16.9521   H         1 RES1   0.0000
    47 C47      1.9617  -3.6147 -15.8256   C.ar      1 RES1   0.0000
    48 N48      1.4950  -2.8944 -16.8559   N.ar      1 RES1   0.0000
    49 C49      4.0599  -2.3096 -16.0188   C.3       1 RES1   0.0000
    50 H50      3.4217  -1.4863 -16.3756   H         1 RES1   0.0000
    51 C51      4.8610  -2.8419 -17.1907   C.ar      1 RES1   0.0000
    52 C52      4.9814  -1.7725 -14.9299   C.3       1 RES1   0.0000
    53 H53      5.6181  -0.9806 -15.3187   H         1 RES1   0.0000
    54 H54      4.4059  -1.3679 -14.1000   H         1 RES1   0.0000
    55 H55      5.6219  -2.5630 -14.5444   H         1 RES1   0.0000
    56 C56      6.3332  -3.8341 -19.3375   C.ar      1 RES1   0.0000
    57 H57      6.9059  -4.2206 -20.1740   H         1 RES1   0.0000
    58 C58      5.2503  -4.1730 -17.2300   C.ar      1 RES1   0.0000
    59 H59      4.9785  -4.8351 -16.4146   H         1 RES1   0.0000
    60 C60      5.2242  -2.0149 -18.2448   C.ar      1 RES1   0.0000
    61 H61      4.9326  -0.9699 -18.2353   H         1 RES1   0.0000
    62 C62      5.9556  -2.5096 -19.3114   C.ar      1 RES1   0.0000
    63 H63      6.2318  -1.8517 -20.1287   H         1 RES1   0.0000
    64 C64      5.9810  -4.6661 -18.2976   C.ar      1 RES1   0.0000
    65 H65      6.2766  -5.7098 -18.3150   H         1 RES1   0.0000
@<TRIPOS>BOND
     1     1     5   ar
     2     1     6   ar
     3     1     2    1
     4     3     8   ar
     5     3     9   ar
     6     3     4    1
     7     5     9   ar
     8     5    11    1
     9     6     8   ar
    10     6     7    1
    11     8    12    1
    12     9    10    1
    13    11    20    2
    14    11    23    1
    15    13    14    1
    16    13    23   am
    17    13    24    1
    18    14    31    1
    19    14    34    1
    20    14    15    1
    21    16    24    1
    22    16    17    1
    23    16    18    1
    24    16    19    1
    25    20    21    1
    26    20    24    1
    27    21    40   ar
    28    21    45   ar
    29    22    23    2
    30    25    34    1
    31    25    37    1
    32    25    26    1
    33    25    27    1
    34    28    31    1
    35    28    37    1
    36    28    29    1
    37    28    30    1
    38    31    32    1
    39    31    33    1
    40    34    35    1
    41    34    36    1
    42    37    38    1
    43    37    39    1
    44    40    47   ar
    45    41    45   ar
    46    41    48   ar
    47    41    42    1
    48    43    47    1
    49    43    49    1
    50    43    44    1
    51    45    46    1
    52    47    48   ar
    53    49    51    1
    54    49    52    1
    55    49    50    1
    56    51    58   ar
    57    51    60   ar
    58    52    53    1
    59    52    54    1
    60    52    55    1
    61    56    62   ar
    62    56    64   ar
    63    56    57    1
    64    58    64   ar
    65    58    59    1
    66    60    62   ar
    67    60    61    1
    68    62    63    1
    69    64    65    1
@<TRIPOS>SUBSTRUCTURE
     1 RES1        1 GROUP             0 ****  ****    0  
@<TRIPOS>MOLECULE
LIGAND_00184
    65    69     1     0     0
SMALL
USER_CHARGES
****
Generated from the CSD

@<TRIPOS>ATOM
     1 C1      -0.7378  -3.6093 -12.6072   C.ar      1 RES1   0.0000
     2 H2       0.2928  -3.9414 -12.6721   H         1 RES1   0.0000
     3 C3      -3.3502  -2.7228 -12.4612   C.ar      1 RES1   0.0000
     4 H4      -4.3728  -2.3644 -12.4070   H         1 RES1   0.0000
     5 C5      -1.7520  -4.4252 -13.0994   C.ar      1 RES1   0.0000
     6 C6      -1.0157  -2.3779 -12.0406   C.ar      1 RES1   0.0000
     7 H7      -0.2191  -1.7530 -11.6509   H         1 RES1   0.0000
     8 C8      -2.3175  -1.9663 -11.9853   C.ar      1 RES1   0.0000
     9 C9      -3.0602  -3.9573 -13.0126   C.ar      1 RES1   0.0000
    10 H10     -3.8747  -4.5709 -13.3803   H         1 RES1   0.0000
    11 C11     -1.4661  -5.7599 -13.7192   C.2       1 RES1   0.0000
    12 F12     -2.5977  -0.7539 -11.4343   F         1 RES1   0.0000
    13 N13     -1.2406  -7.9410 -14.1570   N.am      1 RES1   0.0000
    14 C14     -1.5106  -9.4109 -14.3092   C.3       1 RES1   0.0000
    15 H15     -1.0875  -9.7356 -15.2587   H         1 RES1   0.0000
    16 C16      0.5880  -7.8074 -15.7832   C.3       1 RES1   0.0000
    17 H17      1.2763  -7.0322 -16.1137   H         1 RES1   0.0000
    18 H18      1.1101  -8.4419 -15.0699   H         1 RES1   0.0000
    19 H19      0.3209  -8.4146 -16.6455   H         1 RES1   0.0000
    20 C20     -0.6831  -5.9011 -14.8182   C.2       1 RES1   0.0000
    21 C21      0.0470  -4.8479 -15.5693   C.ar      1 RES1   0.0000
    22 O22     -2.6001  -7.4331 -12.3638   O.2       1 RES1   0.0000
    23 C23     -1.8681  -7.0711 -13.2757   C.2       1 RES1   0.0000
    24 N24     -0.6058  -7.2168 -15.1771   N.3       1 RES1   0.0000
    25 C25     -1.0717 -11.6924 -13.3453   C.3       1 RES1   0.0000
    26 H26     -0.6132 -12.2219 -12.5115   H         1 RES1   0.0000
    27 H27     -0.6313 -12.0363 -14.2800   H         1 RES1   0.0000
    28 C28     -3.2431 -11.2241 -14.4490   C.3       1 RES1   0.0000
    29 H29     -2.8674 -11.5665 -15.4121   H         1 RES1   0.0000
    30 H30     -4.3120 -11.4220 -14.3851   H         1 RES1   0.0000
    31 C31     -3.0040  -9.7270 -14.3234   C.3       1 RES1   0.0000
    32 H32     -3.4673  -9.2203 -15.1687   H         1 RES1   0.0000
    33 H33     -3.4522  -9.3713 -13.3968   H         1 RES1   0.0000
    34 C34     -0.8291 -10.2010 -13.1913   C.3       1 RES1   0.0000
    35 H35     -1.2269  -9.8738 -12.2318   H         1 RES1   0.0000
    36 H36      0.2425 -10.0103 -13.2240   H         1 RES1   0.0000
    37 N37     -2.5420 -11.9640 -13.3587   N.4       1 RES1   1.0000
    38 H38     -2.9347 -11.6807 -12.4667   H         1 RES1   0.0000
    39 H39     -2.6891 -12.9594 -13.4923   H         1 RES1   0.0000
    40 N40      1.3010  -4.5830 -15.1707   N.ar      1 RES1   0.0000
    41 C41      0.2444  -3.1900 -17.2334   C.ar      1 RES1   0.0000
    42 H42     -0.1839  -2.6391 -18.0643   H         1 RES1   0.0000
    43 N43      3.2085  -3.3339 -15.4142   N.pl3     1 RES1   0.0000
    44 H44      3.5684  -3.8350 -14.6020   H         1 RES1   0.0000
    45 C45     -0.5307  -4.1558 -16.6237   C.ar      1 RES1   0.0000
    46 H46     -1.5440  -4.3616 -16.9521   H         1 RES1   0.0000
    47 C47      1.9617  -3.6147 -15.8256   C.ar      1 RES1   0.0000
    48 N48      1.4950  -2.8944 -16.8559   N.ar      1 RES1   0.0000
    49 C49      4.0599  -2.3096 -16.0188   C.3       1 RES1   0.0000
    50 H50      3.4217  -1.4863 -16.3756   H         1 RES1   0.0000
    51 C51      4.8610  -2.8419 -17.1907   C.ar      1 RES1   0.0000
    52 C52      4.9814  -1.7725 -14.9299   C.3       1 RES1   0.0000
    53 H53      5.6181  -0.9806 -15.3187   H         1 RES1   0.0000
    54 H54      4.4059  -1.3679 -14.1000   H         1 RES1   0.0000
    55 H55      5.6219  -2.5630 -14.5444   H         1 RES1   0.0000
    56 C56      6.3398  -3.8305 -19.3347   C.ar      1 RES1   0.0000
    57 H57      6.9151  -4.2158 -20.1699   H         1 RES1   0.0000
    58 C58      5.7556  -3.8877 -17.0143   C.ar      1 RES1   0.0000
    59 H59      5.8808  -4.3253 -16.0293   H         1 RES1   0.0000
    60 C60      4.7216  -2.2976 -18.4600   C.ar      1 RES1   0.0000
    61 H61      4.0295  -1.4779 -18.6220   H         1 RES1   0.0000
    62 C62      5.4570  -2.7902 -19.5248   C.ar      1 RES1   0.0000
    63 H63      5.3371  -2.3554 -20.5115   H         1 RES1   0.0000
    64 C64      6.4895  -4.3795 -18.0802   C.ar      1 RES1   0.0000
    65 H65      7.1838  -5.1989 -17.9269   H         1 RES1   0.0000
@<TRIPOS>BOND
     1     1     5   ar
     2     1     6   ar
     3     1     2    1
     4     3     8   ar
     5     3     9   ar
     6     3     4    1
     7     5     9   ar
     8     5    11    1
     9     6     8   ar
    10     6     7    1
    11     8    12    1
    12     9    10    1
    13    11    20    2
    14    11    23    1
    15    13    14    1
    16    13    23   am
    17    13    24    1
    18    14    31    1
    19    14    34    1
    20    14    15    1
    21    16    24    1
    22    16    17    1
    23    16    18    1
    24    16    19    1
    25    20    21    1
    26    20    24    1
    27    21    40   ar
    28    21    45   ar
    29    22    23    2
    30    25    34    1
    31    25    37    1
    32    25    26    1
    33    25    27    1
    34    28    31    1
    35    28    37    1
    36    28    29    1
    37    28    30    1
    38    31    32    1
    39    31    33    1
    40    34    35    1
    41    34    36    1
    42    37    38    1
    43    37    39    1
    44    40    47   ar
    45    41    45   ar
    46    41    48   ar
    47    41    42    1
    48    43    47    1
    49    43    49    1
    50    43    44    1
    51    45    46    1
    52    47    48   ar
    53    49    51    1
    54    49    52    1
    55    49    50    1
    56    51    58   ar
    57    51    60   ar
    58    52    53    1
    59    52    54    1
    60    52    55    1
    61    56    62   ar
    62    56    64   ar
    63    56    57    1
    64    58    64   ar
    65    58    59    1
    66    60    62   ar
    67    60    61    1
    68    62    63    1
    69    64    65    1
@<TRIPOS>SUBSTRUCTURE
     1 RES1        1 GROUP             0 ****  ****    0  
@<TRIPOS>MOLECULE
LIGAND_00185
    65    69     1     0     0
SMALL
USER_CHARGES
****
Generated from the CSD

@<TRIPOS>ATOM
     1 C1       1.3274  -5.6064 -11.3097   C.ar      1 RES1   0.0000
     2 H2       1.6104  -6.6510 -11.2383   H         1 RES1   0.0000
     3 C3       0.6515  -2.9339 -11.4911   C.ar      1 RES1   0.0000
     4 H4       0.3968  -1.8815 -11.5607   H         1 RES1   0.0000
     5 C5       0.4307  -5.2062 -12.2959   C.ar      1 RES1   0.0000
     6 C6       1.8714  -4.6973 -10.4196   C.ar      1 RES1   0.0000
     7 H7       2.5622  -5.0203  -9.6480   H         1 RES1   0.0000
     8 C8       1.5195  -3.3821 -10.5367   C.ar      1 RES1   0.0000
     9 C9       0.1044  -3.8548 -12.3658   C.ar      1 RES1   0.0000
    10 H10     -0.5964  -3.5104 -13.1178   H         1 RES1   0.0000
    11 C11     -0.1639  -6.1788 -13.2694   C.2       1 RES1   0.0000
    12 F12      2.0549  -2.4816  -9.6682   F         1 RES1   0.0000
    13 N13     -1.2310  -7.9476 -14.1577   N.am      1 RES1   0.0000
    14 C14     -1.4881  -9.4204 -14.3034   C.3       1 RES1   0.0000
    15 H15     -1.1819  -9.7193 -15.3048   H         1 RES1   0.0000
    16 C16     -1.3620  -7.1491 -16.4350   C.3       1 RES1   0.0000
    17 H17     -0.7044  -7.1196 -17.3013   H         1 RES1   0.0000
    18 H18     -2.0257  -8.0045 -16.5429   H         1 RES1   0.0000
    19 H19     -1.9688  -6.2461 -16.4382   H         1 RES1   0.0000
    20 C20     -0.0279  -6.1202 -14.6126   C.2       1 RES1   0.0000
    21 C21      0.6269  -5.0726 -15.4374   C.ar      1 RES1   0.0000
    22 O22     -1.2045  -7.8526 -11.8620   O.2       1 RES1   0.0000
    23 C23     -0.9170  -7.3585 -12.9443   C.2       1 RES1   0.0000
    24 N24     -0.5861  -7.2460 -15.1981   N.3       1 RES1   0.0000
    25 C25     -0.8848 -11.7073 -13.4474   C.3       1 RES1   0.0000
    26 H26     -0.3140 -12.2404 -12.6885   H         1 RES1   0.0000
    27 H27     -0.5592 -12.0254 -14.4367   H         1 RES1   0.0000
    28 C28     -3.1873 -11.2697 -14.2594   C.3       1 RES1   0.0000
    29 H29     -2.9294 -11.5871 -15.2687   H         1 RES1   0.0000
    30 H30     -4.2354 -11.4927 -14.0653   H         1 RES1   0.0000
    31 C31     -2.9647  -9.7699 -14.1356   C.3       1 RES1   0.0000
    32 H32     -3.5413  -9.2595 -14.9057   H         1 RES1   0.0000
    33 H33     -3.2994  -9.4401 -13.1532   H         1 RES1   0.0000
    34 C34     -0.6551 -10.2137 -13.2959   C.3       1 RES1   0.0000
    35 H35     -0.9350  -9.9117 -12.2878   H         1 RES1   0.0000
    36 H36      0.3998  -9.9983 -13.4596   H         1 RES1   0.0000
    37 N37     -2.3392 -12.0119 -13.2808   N.4       1 RES1   1.0000
    38 H38     -2.6218 -11.7526 -12.3411   H         1 RES1   0.0000
    39 H39     -2.4818 -13.0079 -13.4143   H         1 RES1   0.0000
    40 N40     -0.1490  -4.4335 -16.3269   N.ar      1 RES1   0.0000
    41 C41      2.4700  -3.7855 -16.1469   C.ar      1 RES1   0.0000
    42 H42      3.5204  -3.5265 -16.0650   H         1 RES1   0.0000
    43 N43     -0.3324  -2.8774 -18.0012   N.pl3     1 RES1   0.0000
    44 H44     -1.3046  -3.1733 -18.0877   H         1 RES1   0.0000
    45 C45      1.9748  -4.7687 -15.3142   C.ar      1 RES1   0.0000
    46 H46      2.6104  -5.2808 -14.5994   H         1 RES1   0.0000
    47 C47      0.4377  -3.5025 -17.0963   C.ar      1 RES1   0.0000
    48 N48      1.7264  -3.1344 -17.0507   N.ar      1 RES1   0.0000
    49 C49      0.1517  -1.8422 -18.9141   C.3       1 RES1   0.0000
    50 H50      1.1998  -2.0609 -19.1711   H         1 RES1   0.0000
    51 C51      0.0835  -0.4558 -18.3042   C.ar      1 RES1   0.0000
    52 C52     -0.6858  -1.9183 -20.1853   C.3       1 RES1   0.0000
    53 H53     -0.3967  -1.1374 -20.8856   H         1 RES1   0.0000
    54 H54     -0.5564  -2.8798 -20.6777   H         1 RES1   0.0000
    55 H55     -1.7424  -1.7941 -19.9572   H         1 RES1   0.0000
    56 C56     -0.0563   2.0930 -17.1889   C.ar      1 RES1   0.0000
    57 H57     -0.1109   3.0855 -16.7538   H         1 RES1   0.0000
    58 C58     -1.0626   0.3149 -18.4357   C.ar      1 RES1   0.0000
    59 H59     -1.9143  -0.0797 -18.9799   H         1 RES1   0.0000
    60 C60      1.1603   0.0733 -17.6060   C.ar      1 RES1   0.0000
    61 H61      2.0678  -0.5101 -17.4916   H         1 RES1   0.0000
    62 C62      1.0892   1.3403 -17.0518   C.ar      1 RES1   0.0000
    63 H63      1.9384   1.7407 -16.5082   H         1 RES1   0.0000
    64 C64     -1.1322   1.5812 -17.8803   C.ar      1 RES1   0.0000
    65 H65     -2.0360   2.1713 -17.9901   H         1 RES1   0.0000
@<TRIPOS>BOND
     1     1     5   ar
     2     1     6   ar
     3     1     2    1
     4     3     8   ar
     5     3     9   ar
     6     3     4    1
     7     5     9   ar
     8     5    11    1
     9     6     8   ar
    10     6     7    1
    11     8    12    1
    12     9    10    1
    13    11    20    2
    14    11    23    1
    15    13    14    1
    16    13    23   am
    17    13    24    1
    18    14    31    1
    19    14    34    1
    20    14    15    1
    21    16    24    1
    22    16    17    1
    23    16    18    1
    24    16    19    1
    25    20    21    1
    26    20    24    1
    27    21    40   ar
    28    21    45   ar
    29    22    23    2
    30    25    34    1
    31    25    37    1
    32    25    26    1
    33    25    27    1
    34    28    31    1
    35    28    37    1
    36    28    29    1
    37    28    30    1
    38    31    32    1
    39    31    33    1
    40    34    35    1
    41    34    36    1
    42    37    38    1
    43    37    39    1
    44    40    47   ar
    45    41    45   ar
    46    41    48   ar
    47    41    42    1
    48    43    47    1
    49    43    49    1
    50    43    44    1
    51    45    46    1
    52    47    48   ar
    53    49    51    1
    54    49    52    1
    55    49    50    1
    56    51    58   ar
    57    51    60   ar
    58    52    53    1
    59    52    54    1
    60    52    55    1
    61    56    62   ar
    62    56    64   ar
    63    56    57    1
    64    58    64   ar
    65    58    59    1
    66    60    62   ar
    67    60    61    1
    68    62    63    1
    69    64    65    1
@<TRIPOS>SUBSTRUCTURE
     1 RES1        1 GROUP             0 ****  ****    0  
@<TRIPOS>MOLECULE
LIGAND_00186
    65    69     1     0     0
SMALL
USER_CHARGES
****
Generated from the CSD

@<TRIPOS>ATOM
     1 C1       1.8363  -5.0308 -12.2162   C.ar      1 RES1   0.0000
     2 H2       2.4918  -5.5879 -12.8768   H         1 RES1   0.0000
     3 C3       0.1881  -3.5725 -10.5463   C.ar      1 RES1   0.0000
     4 H4      -0.4529  -2.9906  -9.8924   H         1 RES1   0.0000
     5 C5       0.4604  -5.2241 -12.2950   C.ar      1 RES1   0.0000
     6 C6       2.3872  -4.1369 -11.3151   C.ar      1 RES1   0.0000
     7 H7       3.4617  -4.0002 -11.2544   H         1 RES1   0.0000
     8 C8       1.5456  -3.4286 -10.5045   C.ar      1 RES1   0.0000
     9 C9      -0.3489  -4.4790 -11.4419   C.ar      1 RES1   0.0000
    10 H10     -1.4245  -4.6103 -11.4724   H         1 RES1   0.0000
    11 C11     -0.1512  -6.1860 -13.2685   C.2       1 RES1   0.0000
    12 F12      2.0801  -2.5436  -9.6196   F         1 RES1   0.0000
    13 N13     -1.2406  -7.9410 -14.1570   N.am      1 RES1   0.0000
    14 C14     -1.5106  -9.4109 -14.3092   C.3       1 RES1   0.0000
    15 H15     -1.2165  -9.7060 -15.3154   H         1 RES1   0.0000
    16 C16     -1.3876  -7.1276 -16.4280   C.3       1 RES1   0.0000
    17 H17     -0.7384  -7.0978 -17.3006   H         1 RES1   0.0000
    18 H18     -2.0590  -7.9772 -16.5346   H         1 RES1   0.0000
    19 H19     -1.9875  -6.2200 -16.4198   H         1 RES1   0.0000
    20 C20     -0.0279  -6.1202 -14.6126   C.2       1 RES1   0.0000
    21 C21      0.6269  -5.0726 -15.4374   C.ar      1 RES1   0.0000
    22 O22     -1.1910  -7.8605 -11.8611   O.2       1 RES1   0.0000
    23 C23     -0.9103  -7.3619 -12.9432   C.2       1 RES1   0.0000
    24 N24     -0.6005  -7.2381 -15.1994   N.3       1 RES1   0.0000
    25 C25     -0.9166 -11.7076 -13.4731   C.3       1 RES1   0.0000
    26 H26     -0.3425 -12.2497 -12.7231   H         1 RES1   0.0000
    27 H27     -0.6032 -12.0221 -14.4675   H         1 RES1   0.0000
    28 C28     -3.2234 -11.2473 -14.2597   C.3       1 RES1   0.0000
    29 H29     -2.9780 -11.5605 -15.2734   H         1 RES1   0.0000
    30 H30     -4.2713 -11.4635 -14.0566   H         1 RES1   0.0000
    31 C31     -2.9881  -9.7501 -14.1290   C.3       1 RES1   0.0000
    32 H32     -3.5682  -9.2306 -14.8902   H         1 RES1   0.0000
    33 H33     -3.3105  -9.4238 -13.1413   H         1 RES1   0.0000
    34 C34     -0.6738 -10.2168 -13.3148   C.3       1 RES1   0.0000
    35 H35     -0.9415  -9.9189 -12.3021   H         1 RES1   0.0000
    36 H36      0.3810 -10.0085 -13.4876   H         1 RES1   0.0000
    37 N37     -2.3716 -12.0020 -13.2941   N.4       1 RES1   1.0000
    38 H38     -2.6429 -11.7464 -12.3500   H         1 RES1   0.0000
    39 H39     -2.5232 -12.9961 -13.4322   H         1 RES1   0.0000
    40 N40      1.9307  -5.2446 -15.7060   N.ar      1 RES1   0.0000
    41 C41      0.6624  -3.0499 -16.6475   C.ar      1 RES1   0.0000
    42 H42      0.1456  -2.1746 -17.0270   H         1 RES1   0.0000
    43 N43      3.8487  -4.4508 -16.6805   N.pl3     1 RES1   0.0000
    44 H44      4.3111  -3.7570 -17.2680   H         1 RES1   0.0000
    45 C45     -0.0596  -3.9606 -15.9027   C.ar      1 RES1   0.0000
    46 H46     -1.1130  -3.8119 -15.6895   H         1 RES1   0.0000
    47 C47      2.5396  -4.2909 -16.4291   C.ar      1 RES1   0.0000
    48 N48      1.9652  -3.1860 -16.9266   N.ar      1 RES1   0.0000
    49 C49      4.6391  -5.5910 -16.2169   C.3       1 RES1   0.0000
    50 H50      3.9915  -6.4811 -16.1900   H         1 RES1   0.0000
    51 C51      5.2142  -5.3705 -14.8316   C.ar      1 RES1   0.0000
    52 C52      5.7488  -5.8286 -17.2344   C.3       1 RES1   0.0000
    53 H53      6.3512  -6.6903 -16.9547   H         1 RES1   0.0000
    54 H54      5.3347  -6.0115 -18.2238   H         1 RES1   0.0000
    55 H55      6.4048  -4.9628 -17.2967   H         1 RES1   0.0000
    56 C56      6.2716  -4.9501 -12.2889   C.ar      1 RES1   0.0000
    57 H57      6.6827  -4.7864 -11.2982   H         1 RES1   0.0000
    58 C58      5.5283  -4.0913 -14.3957   C.ar      1 RES1   0.0000
    59 H59      5.3605  -3.2448 -15.0534   H         1 RES1   0.0000
    60 C60      5.4413  -6.4367 -13.9723   C.ar      1 RES1   0.0000
    61 H61      5.2052  -7.4463 -14.2917   H         1 RES1   0.0000
    62 C62      5.9666  -6.2262 -12.7085   C.ar      1 RES1   0.0000
    63 H63      6.1382  -7.0691 -12.0473   H         1 RES1   0.0000
    64 C64      6.0528  -3.8826 -13.1315   C.ar      1 RES1   0.0000
    65 H65      6.2917  -2.8762 -12.8042   H         1 RES1   0.0000
@<TRIPOS>BOND
     1     1     5   ar
     2     1     6   ar
     3     1     2    1
     4     3     8   ar
     5     3     9   ar
     6     3     4    1
     7     5     9   ar
     8     5    11    1
     9     6     8   ar
    10     6     7    1
    11     8    12    1
    12     9    10    1
    13    11    20    2
    14    11    23    1
    15    13    14    1
    16    13    23   am
    17    13    24    1
    18    14    31    1
    19    14    34    1
    20    14    15    1
    21    16    24    1
    22    16    17    1
    23    16    18    1
    24    16    19    1
    25    20    21    1
    26    20    24    1
    27    21    40   ar
    28    21    45   ar
    29    22    23    2
    30    25    34    1
    31    25    37    1
    32    25    26    1
    33    25    27    1
    34    28    31    1
    35    28    37    1
    36    28    29    1
    37    28    30    1
    38    31    32    1
    39    31    33    1
    40    34    35    1
    41    34    36    1
    42    37    38    1
    43    37    39    1
    44    40    47   ar
    45    41    45   ar
    46    41    48   ar
    47    41    42    1
    48    43    47    1
    49    43    49    1
    50    43    44    1
    51    45    46    1
    52    47    48   ar
    53    49    51    1
    54    49    52    1
    55    49    50    1
    56    51    58   ar
    57    51    60   ar
    58    52    53    1
    59    52    54    1
    60    52    55    1
    61    56    62   ar
    62    56    64   ar
    63    56    57    1
    64    58    64   ar
    65    58    59    1
    66    60    62   ar
    67    60    61    1
    68    62    63    1
    69    64    65    1
@<TRIPOS>SUBSTRUCTURE
     1 RES1        1 GROUP             0 ****  ****    0  
@<TRIPOS>MOLECULE
LIGAND_00187
    65    69     1     0     0
SMALL
USER_CHARGES
****
Generated from the CSD

@<TRIPOS>ATOM
     1 C1      -0.4422  -3.6875 -12.4150   C.ar      1 RES1   0.0000
     2 H2       0.5784  -4.0378 -12.5251   H         1 RES1   0.0000
     3 C3      -3.0293  -2.7545 -12.1537   C.ar      1 RES1   0.0000
     4 H4      -4.0419  -2.3778 -12.0541   H         1 RES1   0.0000
     5 C5      -1.4902  -4.4749 -12.8824   C.ar      1 RES1   0.0000
     6 C6      -0.6743  -2.4617 -11.8165   C.ar      1 RES1   0.0000
     7 H7       0.1486  -1.8593 -11.4466   H         1 RES1   0.0000
     8 C8      -1.9647  -2.0265 -11.7043   C.ar      1 RES1   0.0000
     9 C9      -2.7847  -3.9839 -12.7375   C.ar      1 RES1   0.0000
    10 H10     -3.6245  -4.5751 -13.0846   H         1 RES1   0.0000
    11 C11     -1.2542  -5.8031 -13.5362   C.2       1 RES1   0.0000
    12 F12     -2.2000  -0.8194 -11.1217   F         1 RES1   0.0000
    13 N13     -1.1784  -7.9481 -14.1159   N.am      1 RES1   0.0000
    14 C14     -1.3646  -9.4348 -14.2227   C.3       1 RES1   0.0000
    15 H15     -0.8769  -9.7716 -15.1363   H         1 RES1   0.0000
    16 C16     -0.1174  -7.7264 -16.3968   C.3       1 RES1   0.0000
    17 H17      0.4558  -6.9890 -16.9549   H         1 RES1   0.0000
    18 H18      0.4992  -8.6149 -16.2776   H         1 RES1   0.0000
    19 H19     -0.9904  -7.9960 -16.9875   H         1 RES1   0.0000
    20 C20     -0.5870  -5.9122 -14.7311   C.2       1 RES1   0.0000
    21 C21      0.0604  -4.8376 -15.5265   C.ar      1 RES1   0.0000
    22 O22     -2.2448  -7.5342 -12.1706   O.2       1 RES1   0.0000
    23 C23     -1.6296  -7.1223 -13.1454   C.2       1 RES1   0.0000
    24 N24     -0.5189  -7.1937 -15.0944   N.pl3     1 RES1   0.0000
    25 C25     -0.8602 -11.6525 -13.1482   C.3       1 RES1   0.0000
    26 H26     -0.4189 -12.1256 -12.2723   H         1 RES1   0.0000
    27 H27     -0.3551 -12.0070 -14.0455   H         1 RES1   0.0000
    28 C28     -2.9926 -11.3414 -14.3763   C.3       1 RES1   0.0000
    29 H29     -2.5507 -11.6988 -15.3052   H         1 RES1   0.0000
    30 H30     -4.0520 -11.5931 -14.3578   H         1 RES1   0.0000
    31 C31     -2.8373  -9.8301 -14.2986   C.3       1 RES1   0.0000
    32 H32     -3.2815  -9.3803 -15.1853   H         1 RES1   0.0000
    33 H33     -3.3503  -9.4645 -13.4103   H         1 RES1   0.0000
    34 C34     -0.7025 -10.1456 -13.0418   C.3       1 RES1   0.0000
    35 H35     -1.1656  -9.8046 -12.1170   H         1 RES1   0.0000
    36 H36      0.3583  -9.8997 -13.0287   H         1 RES1   0.0000
    37 N37     -2.3120 -12.0020 -13.2239   N.4       1 RES1   1.0000
    38 H38     -2.7643 -11.7071 -12.3645   H         1 RES1   0.0000
    39 H39     -2.4010 -13.0081 -13.3250   H         1 RES1   0.0000
    40 N40     -0.4745  -4.5722 -16.7286   N.ar      1 RES1   0.0000
    41 C41      1.6905  -3.1773 -15.9048   C.ar      1 RES1   0.0000
    42 H42      2.5557  -2.6175 -15.5653   H         1 RES1   0.0000
    43 N43     -0.4029  -3.3687 -18.6792   N.pl3     1 RES1   0.0000
    44 H44     -1.1743  -3.9543 -18.9992   H         1 RES1   0.0000
    45 C45      1.1705  -4.1438 -15.0676   C.ar      1 RES1   0.0000
    46 H46      1.6110  -4.3522 -14.0982   H         1 RES1   0.0000
    47 C47      0.1180  -3.6205 -17.4677   C.ar      1 RES1   0.0000
    48 N48      1.1874  -2.8931 -17.1131   N.ar      1 RES1   0.0000
    49 C49      0.1073  -2.3485 -19.5949   C.3       1 RES1   0.0000
    50 H50      1.1901  -2.2365 -19.4297   H         1 RES1   0.0000
    51 C51     -0.5548  -1.0008 -19.3856   C.ar      1 RES1   0.0000
    52 C52     -0.1176  -2.8494 -21.0168   C.3       1 RES1   0.0000
    53 H53      0.2748  -2.1402 -21.7426   H         1 RES1   0.0000
    54 H54      0.3787  -3.8047 -21.1742   H         1 RES1   0.0000
    55 H55     -1.1792  -2.9828 -21.2137   H         1 RES1   0.0000
    56 C56     -1.7767   1.4751 -19.0156   C.ar      1 RES1   0.0000
    57 H57     -2.2532   2.4391 -18.8711   H         1 RES1   0.0000
    58 C58     -1.2641  -0.3982 -20.4145   C.ar      1 RES1   0.0000
    59 H59     -1.3433  -0.8971 -21.3747   H         1 RES1   0.0000
    60 C60     -0.4658  -0.3404 -18.1679   C.ar      1 RES1   0.0000
    61 H61      0.0851  -0.7912 -17.3491   H         1 RES1   0.0000
    62 C62     -1.0740   0.8901 -17.9853   C.ar      1 RES1   0.0000
    63 H63     -0.9966   1.3943 -17.0278   H         1 RES1   0.0000
    64 C64     -1.8722   0.8319 -20.2299   C.ar      1 RES1   0.0000
    65 H65     -2.4250   1.2897 -21.0435   H         1 RES1   0.0000
@<TRIPOS>BOND
     1     1     5   ar
     2     1     6   ar
     3     1     2    1
     4     3     8   ar
     5     3     9   ar
     6     3     4    1
     7     5     9   ar
     8     5    11    1
     9     6     8   ar
    10     6     7    1
    11     8    12    1
    12     9    10    1
    13    11    20    2
    14    11    23    1
    15    13    14    1
    16    13    23   am
    17    13    24    1
    18    14    31    1
    19    14    34    1
    20    14    15    1
    21    16    24    1
    22    16    17    1
    23    16    18    1
    24    16    19    1
    25    20    21    1
    26    20    24    1
    27    21    40   ar
    28    21    45   ar
    29    22    23    2
    30    25    34    1
    31    25    37    1
    32    25    26    1
    33    25    27    1
    34    28    31    1
    35    28    37    1
    36    28    29    1
    37    28    30    1
    38    31    32    1
    39    31    33    1
    40    34    35    1
    41    34    36    1
    42    37    38    1
    43    37    39    1
    44    40    47   ar
    45    41    45   ar
    46    41    48   ar
    47    41    42    1
    48    43    47    1
    49    43    49    1
    50    43    44    1
    51    45    46    1
    52    47    48   ar
    53    49    51    1
    54    49    52    1
    55    49    50    1
    56    51    58   ar
    57    51    60   ar
    58    52    53    1
    59    52    54    1
    60    52    55    1
    61    56    62   ar
    62    56    64   ar
    63    56    57    1
    64    58    64   ar
    65    58    59    1
    66    60    62   ar
    67    60    61    1
    68    62    63    1
    69    64    65    1
@<TRIPOS>SUBSTRUCTURE
     1 RES1        1 GROUP             0 ****  ****    0  
@<TRIPOS>MOLECULE
LIGAND_00188
    65    69     1     0     0
SMALL
USER_CHARGES
****
Generated from the CSD

@<TRIPOS>ATOM
     1 C1      -0.5154  -3.6497 -12.4590   C.ar      1 RES1   0.0000
     2 H2       0.5129  -3.9788 -12.5626   H         1 RES1   0.0000
     3 C3      -3.1231  -2.7710 -12.2148   C.ar      1 RES1   0.0000
     4 H4      -4.1440  -2.4156 -12.1222   H         1 RES1   0.0000
     5 C5      -1.5448  -4.4671 -12.9163   C.ar      1 RES1   0.0000
     6 C6      -0.7757  -2.4208 -11.8789   C.ar      1 RES1   0.0000
     7 H7       0.0330  -1.7949 -11.5166   H         1 RES1   0.0000
     8 C8      -2.0757  -2.0130 -11.7747   C.ar      1 RES1   0.0000
     9 C9      -2.8501  -4.0031 -12.7803   C.ar      1 RES1   0.0000
    10 H10     -3.6760  -4.6178 -13.1198   H         1 RES1   0.0000
    11 C11     -1.2781  -5.7990 -13.5503   C.2       1 RES1   0.0000
    12 F12     -2.3388  -0.8031 -11.2102   F         1 RES1   0.0000
    13 N13     -1.1617  -7.9491 -14.1037   N.am      1 RES1   0.0000
    14 C14     -1.3253  -9.4395 -14.1970   C.3       1 RES1   0.0000
    15 H15     -0.8172  -9.7794 -15.0982   H         1 RES1   0.0000
    16 C16     -0.0610  -7.7382 -16.3668   C.3       1 RES1   0.0000
    17 H17      0.6789  -7.0880 -16.8292   H         1 RES1   0.0000
    18 H18      0.3847  -8.7229 -16.2420   H         1 RES1   0.0000
    19 H19     -0.9043  -7.8312 -17.0479   H         1 RES1   0.0000
    20 C20     -0.5870  -5.9122 -14.7311   C.2       1 RES1   0.0000
    21 C21      0.0604  -4.8376 -15.5265   C.ar      1 RES1   0.0000
    22 O22     -2.2704  -7.5285 -12.1837   O.2       1 RES1   0.0000
    23 C23     -1.6426  -7.1190 -13.1515   C.2       1 RES1   0.0000
    24 N24     -0.4943  -7.1966 -15.0784   N.pl3     1 RES1   0.0000
    25 C25     -0.8089 -11.6378 -13.0890   C.3       1 RES1   0.0000
    26 H26     -0.3764 -12.0949 -12.2003   H         1 RES1   0.0000
    27 H27     -0.2833 -11.9950 -13.9734   H         1 RES1   0.0000
    28 C28     -2.9237 -11.3704 -14.3571   C.3       1 RES1   0.0000
    29 H29     -2.4607 -11.7318 -15.2742   H         1 RES1   0.0000
    30 H30     -3.9796 -11.6369 -14.3542   H         1 RES1   0.0000
    31 C31     -2.7908  -9.8563 -14.2938   C.3       1 RES1   0.0000
    32 H32     -3.2257  -9.4227 -15.1931   H         1 RES1   0.0000
    33 H33     -3.3243  -9.4882 -13.4188   H         1 RES1   0.0000
    34 C34     -0.6740 -10.1278 -12.9969   C.3       1 RES1   0.0000
    35 H35     -1.1579  -9.7831 -12.0842   H         1 RES1   0.0000
    36 H36      0.3829  -9.8667 -12.9683   H         1 RES1   0.0000
    37 N37     -2.2541 -12.0086 -13.1858   N.4       1 RES1   1.0000
    38 H38     -2.7254 -11.7106 -12.3377   H         1 RES1   0.0000
    39 H39     -2.3273 -13.0169 -13.2771   H         1 RES1   0.0000
    40 N40     -0.4745  -4.5722 -16.7286   N.ar      1 RES1   0.0000
    41 C41      1.6905  -3.1773 -15.9048   C.ar      1 RES1   0.0000
    42 H42      2.5557  -2.6175 -15.5653   H         1 RES1   0.0000
    43 N43     -0.4029  -3.3687 -18.6792   N.pl3     1 RES1   0.0000
    44 H44     -0.0032  -2.6032 -19.2219   H         1 RES1   0.0000
    45 C45      1.1705  -4.1438 -15.0676   C.ar      1 RES1   0.0000
    46 H46      1.6110  -4.3522 -14.0982   H         1 RES1   0.0000
    47 C47      0.1180  -3.6205 -17.4677   C.ar      1 RES1   0.0000
    48 N48      1.1874  -2.8931 -17.1131   N.ar      1 RES1   0.0000
    49 C49     -1.5485  -4.0822 -19.2432   C.3       1 RES1   0.0000
    50 H50     -2.1965  -4.4165 -18.4182   H         1 RES1   0.0000
    51 C51     -1.1327  -5.2950 -20.0523   C.ar      1 RES1   0.0000
    52 C52     -2.3290  -3.0961 -20.1044   C.3       1 RES1   0.0000
    53 H53     -3.2146  -3.5676 -20.5253   H         1 RES1   0.0000
    54 H54     -2.6487  -2.2375 -19.5176   H         1 RES1   0.0000
    55 H55     -1.7150  -2.7345 -20.9267   H         1 RES1   0.0000
    56 C56     -0.3756  -7.5175 -21.5515   C.ar      1 RES1   0.0000
    57 H57     -0.0801  -8.3829 -22.1354   H         1 RES1   0.0000
    58 C58     -1.4828  -5.4016 -21.3906   C.ar      1 RES1   0.0000
    59 H59     -2.0587  -4.6100 -21.8585   H         1 RES1   0.0000
    60 C60     -0.3984  -6.3227 -19.4766   C.ar      1 RES1   0.0000
    61 H61     -0.1145  -6.2624 -18.4312   H         1 RES1   0.0000
    62 C62     -0.0225  -7.4267 -20.2231   C.ar      1 RES1   0.0000
    63 H63      0.5519  -8.2221 -19.7600   H         1 RES1   0.0000
    64 C64     -1.1054  -6.5058 -22.1357   C.ar      1 RES1   0.0000
    65 H65     -1.3852  -6.5740 -23.1817   H         1 RES1   0.0000
@<TRIPOS>BOND
     1     1     5   ar
     2     1     6   ar
     3     1     2    1
     4     3     8   ar
     5     3     9   ar
     6     3     4    1
     7     5     9   ar
     8     5    11    1
     9     6     8   ar
    10     6     7    1
    11     8    12    1
    12     9    10    1
    13    11    20    2
    14    11    23    1
    15    13    14    1
    16    13    23   am
    17    13    24    1
    18    14    31    1
    19    14    34    1
    20    14    15    1
    21    16    24    1
    22    16    17    1
    23    16    18    1
    24    16    19    1
    25    20    21    1
    26    20    24    1
    27    21    40   ar
    28    21    45   ar
    29    22    23    2
    30    25    34    1
    31    25    37    1
    32    25    26    1
    33    25    27    1
    34    28    31    1
    35    28    37    1
    36    28    29    1
    37    28    30    1
    38    31    32    1
    39    31    33    1
    40    34    35    1
    41    34    36    1
    42    37    38    1
    43    37    39    1
    44    40    47   ar
    45    41    45   ar
    46    41    48   ar
    47    41    42    1
    48    43    47    1
    49    43    49    1
    50    43    44    1
    51    45    46    1
    52    47    48   ar
    53    49    51    1
    54    49    52    1
    55    49    50    1
    56    51    58   ar
    57    51    60   ar
    58    52    53    1
    59    52    54    1
    60    52    55    1
    61    56    62   ar
    62    56    64   ar
    63    56    57    1
    64    58    64   ar
    65    58    59    1
    66    60    62   ar
    67    60    61    1
    68    62    63    1
    69    64    65    1
@<TRIPOS>SUBSTRUCTURE
     1 RES1        1 GROUP             0 ****  ****    0  
@<TRIPOS>MOLECULE
LIGAND_00189
    65    69     1     0     0
SMALL
USER_CHARGES
****
Generated from the CSD

@<TRIPOS>ATOM
     1 C1      -0.3077  -4.3801 -11.5416   C.ar      1 RES1   0.0000
     2 H2       0.3352  -5.1853 -11.2030   H         1 RES1   0.0000
     3 C3      -1.9091  -2.3000 -12.4022   C.ar      1 RES1   0.0000
     4 H4      -2.5296  -1.4758 -12.7381   H         1 RES1   0.0000
     5 C5      -1.0924  -4.5622 -12.6765   C.ar      1 RES1   0.0000
     6 C6      -0.3258  -3.1891 -10.8375   C.ar      1 RES1   0.0000
     7 H7       0.2822  -3.0600  -9.9483   H         1 RES1   0.0000
     8 C8      -1.1262  -2.1782 -11.2898   C.ar      1 RES1   0.0000
     9 C9      -1.8921  -3.5001 -13.0890   C.ar      1 RES1   0.0000
    10 H10     -2.5209  -3.6108 -13.9651   H         1 RES1   0.0000
    11 C11     -1.0806  -5.8451 -13.4517   C.2       1 RES1   0.0000
    12 F12     -1.1448  -1.0021 -10.6054   F         1 RES1   0.0000
    13 N13     -1.3015  -7.9300 -14.1916   N.am      1 RES1   0.0000
    14 C14     -1.6523  -9.3783 -14.3806   C.3       1 RES1   0.0000
    15 H15     -1.3233  -9.6788 -15.3743   H         1 RES1   0.0000
    16 C16     -0.5248  -7.6117 -16.5735   C.3       1 RES1   0.0000
    17 H17      0.0093  -6.8667 -17.1596   H         1 RES1   0.0000
    18 H18      0.0429  -8.5394 -16.6070   H         1 RES1   0.0000
    19 H19     -1.4895  -7.7870 -17.0449   H         1 RES1   0.0000
    20 C20     -0.5870  -5.9122 -14.7311   C.2       1 RES1   0.0000
    21 C21      0.0604  -4.8376 -15.5265   C.ar      1 RES1   0.0000
    22 O22     -2.0611  -7.5884 -12.0943   O.2       1 RES1   0.0000
    23 C23     -1.5368  -7.1528 -13.1110   C.2       1 RES1   0.0000
    24 N24     -0.6987  -7.1584 -15.1931   N.pl3     1 RES1   0.0000
    25 C25     -1.2457 -11.7175 -13.5500   C.3       1 RES1   0.0000
    26 H26     -0.7469 -12.3032 -12.7792   H         1 RES1   0.0000
    27 H27     -0.8992 -12.0386 -14.5312   H         1 RES1   0.0000
    28 C28     -3.4746 -11.1056 -14.4500   C.3       1 RES1   0.0000
    29 H29     -3.1947 -11.4210 -15.4540   H         1 RES1   0.0000
    30 H30     -4.5430 -11.2589 -14.3059   H         1 RES1   0.0000
    31 C31     -3.1554  -9.6276 -14.2838   C.3       1 RES1   0.0000
    32 H32     -3.6609  -9.0639 -15.0665   H         1 RES1   0.0000
    33 H33     -3.5097  -9.2940 -13.3096   H         1 RES1   0.0000
    34 C34     -0.9210 -10.2466 -13.3560   C.3       1 RES1   0.0000
    35 H35     -1.2238  -9.9451 -12.3544   H         1 RES1   0.0000
    36 H36      0.1524 -10.1019 -13.4697   H         1 RES1   0.0000
    37 N37     -2.7235 -11.9234 -13.4525   N.4       1 RES1   1.0000
    38 H38     -3.0289 -11.6630 -12.5203   H         1 RES1   0.0000
    39 H39     -2.9280 -12.9044 -13.6139   H         1 RES1   0.0000
    40 N40      1.3518  -5.0181 -15.8447   N.ar      1 RES1   0.0000
    41 C41      0.0944  -2.7605 -16.6407   C.ar      1 RES1   0.0000
    42 H42     -0.4181  -1.8597 -16.9618   H         1 RES1   0.0000
    43 N43      3.2523  -4.2108 -16.8421   N.pl3     1 RES1   0.0000
    44 H44      3.7253  -5.0351 -16.4717   H         1 RES1   0.0000
    45 C45     -0.6202  -3.6935 -15.9166   C.ar      1 RES1   0.0000
    46 H46     -1.6635  -3.5377 -15.6629   H         1 RES1   0.0000
    47 C47      1.9548  -4.0414 -16.5414   C.ar      1 RES1   0.0000
    48 N48      1.3851  -2.9047 -16.9677   N.ar      1 RES1   0.0000
    49 C49      4.0461  -3.2557 -17.6148   C.3       1 RES1   0.0000
    50 H50      3.6530  -2.2432 -17.4342   H         1 RES1   0.0000
    51 C51      3.9964  -3.5342 -19.1042   C.ar      1 RES1   0.0000
    52 C52      5.4784  -3.3197 -17.0976   C.3       1 RES1   0.0000
    53 H53      6.1094  -2.6023 -17.6181   H         1 RES1   0.0000
    54 H54      5.5168  -3.0952 -16.0337   H         1 RES1   0.0000
    55 H55      5.8978  -4.3120 -17.2496   H         1 RES1   0.0000
    56 C56      3.9204  -4.0481 -21.8411   C.ar      1 RES1   0.0000
    57 H57      3.8905  -4.2489 -22.9069   H         1 RES1   0.0000
    58 C58      5.1592  -3.8174 -19.8061   C.ar      1 RES1   0.0000
    59 H59      6.1093  -3.8384 -19.2827   H         1 RES1   0.0000
    60 C60      2.7941  -3.5104 -19.7976   C.ar      1 RES1   0.0000
    61 H61      1.8719  -3.2895 -19.2704   H         1 RES1   0.0000
    62 C62      2.7578  -3.7663 -21.1580   C.ar      1 RES1   0.0000
    63 H63      1.8107  -3.7449 -21.6868   H         1 RES1   0.0000
    64 C64      5.1209  -4.0738 -21.1661   C.ar      1 RES1   0.0000
    65 H65      6.0384  -4.2955 -21.7010   H         1 RES1   0.0000
@<TRIPOS>BOND
     1     1     5   ar
     2     1     6   ar
     3     1     2    1
     4     3     8   ar
     5     3     9   ar
     6     3     4    1
     7     5     9   ar
     8     5    11    1
     9     6     8   ar
    10     6     7    1
    11     8    12    1
    12     9    10    1
    13    11    20    2
    14    11    23    1
    15    13    14    1
    16    13    23   am
    17    13    24    1
    18    14    31    1
    19    14    34    1
    20    14    15    1
    21    16    24    1
    22    16    17    1
    23    16    18    1
    24    16    19    1
    25    20    21    1
    26    20    24    1
    27    21    40   ar
    28    21    45   ar
    29    22    23    2
    30    25    34    1
    31    25    37    1
    32    25    26    1
    33    25    27    1
    34    28    31    1
    35    28    37    1
    36    28    29    1
    37    28    30    1
    38    31    32    1
    39    31    33    1
    40    34    35    1
    41    34    36    1
    42    37    38    1
    43    37    39    1
    44    40    47   ar
    45    41    45   ar
    46    41    48   ar
    47    41    42    1
    48    43    47    1
    49    43    49    1
    50    43    44    1
    51    45    46    1
    52    47    48   ar
    53    49    51    1
    54    49    52    1
    55    49    50    1
    56    51    58   ar
    57    51    60   ar
    58    52    53    1
    59    52    54    1
    60    52    55    1
    61    56    62   ar
    62    56    64   ar
    63    56    57    1
    64    58    64   ar
    65    58    59    1
    66    60    62   ar
    67    60    61    1
    68    62    63    1
    69    64    65    1
@<TRIPOS>SUBSTRUCTURE
     1 RES1        1 GROUP             0 ****  ****    0  
@<TRIPOS>MOLECULE
LIGAND_00190
    65    69     1     0     0
SMALL
USER_CHARGES
****
Generated from the CSD

@<TRIPOS>ATOM
     1 C1      -0.3080  -4.3798 -11.5418   C.ar      1 RES1   0.0000
     2 H2       0.3351  -5.1849 -11.2031   H         1 RES1   0.0000
     3 C3      -1.9098  -2.3000 -12.4025   C.ar      1 RES1   0.0000
     4 H4      -2.5305  -1.4759 -12.7384   H         1 RES1   0.0000
     5 C5      -1.0927  -4.5621 -12.6767   C.ar      1 RES1   0.0000
     6 C6      -0.3263  -3.1888 -10.8378   C.ar      1 RES1   0.0000
     7 H7       0.2818  -3.0595  -9.9486   H         1 RES1   0.0000
     8 C8      -1.1269  -2.1780 -11.2901   C.ar      1 RES1   0.0000
     9 C9      -1.8926  -3.5001 -13.0892   C.ar      1 RES1   0.0000
    10 H10     -2.5214  -3.6111 -13.9653   H         1 RES1   0.0000
    11 C11     -1.0807  -5.8451 -13.4518   C.2       1 RES1   0.0000
    12 F12     -1.1457  -1.0019 -10.6057   F         1 RES1   0.0000
    13 N13     -1.3014  -7.9300 -14.1916   N.am      1 RES1   0.0000
    14 C14     -1.6521  -9.3784 -14.3805   C.3       1 RES1   0.0000
    15 H15     -1.3230  -9.6789 -15.3741   H         1 RES1   0.0000
    16 C16     -0.5244  -7.6119 -16.5733   C.3       1 RES1   0.0000
    17 H17      0.1949  -6.9856 -17.0970   H         1 RES1   0.0000
    18 H18     -0.1630  -8.6378 -16.6005   H         1 RES1   0.0000
    19 H19     -1.4679  -7.5700 -17.1135   H         1 RES1   0.0000
    20 C20     -0.5870  -5.9122 -14.7311   C.2       1 RES1   0.0000
    21 C21      0.0604  -4.8376 -15.5265   C.ar      1 RES1   0.0000
    22 O22     -2.0612  -7.5883 -12.0943   O.2       1 RES1   0.0000
    23 C23     -1.5369  -7.1527 -13.1110   C.2       1 RES1   0.0000
    24 N24     -0.6986  -7.1584 -15.1930   N.pl3     1 RES1   0.0000
    25 C25     -1.2454 -11.7175 -13.5497   C.3       1 RES1   0.0000
    26 H26     -0.7466 -12.3031 -12.7789   H         1 RES1   0.0000
    27 H27     -0.8988 -12.0386 -14.5308   H         1 RES1   0.0000
    28 C28     -3.4742 -11.1058 -14.4499   C.3       1 RES1   0.0000
    29 H29     -3.1942 -11.4213 -15.4540   H         1 RES1   0.0000
    30 H30     -4.5427 -11.2592 -14.3059   H         1 RES1   0.0000
    31 C31     -3.1551  -9.6277 -14.2839   C.3       1 RES1   0.0000
    32 H32     -3.6607  -9.0641 -15.0666   H         1 RES1   0.0000
    33 H33     -3.5096  -9.2941 -13.3097   H         1 RES1   0.0000
    34 C34     -0.9208 -10.2465 -13.3558   C.3       1 RES1   0.0000
    35 H35     -1.2238  -9.9450 -12.3542   H         1 RES1   0.0000
    36 H36      0.1526 -10.1018 -13.4693   H         1 RES1   0.0000
    37 N37     -2.7231 -11.9235 -13.4524   N.4       1 RES1   1.0000
    38 H38     -3.0286 -11.6630 -12.5201   H         1 RES1   0.0000
    39 H39     -2.9276 -12.9045 -13.6137   H         1 RES1   0.0000
    40 N40      1.3518  -5.0181 -15.8447   N.ar      1 RES1   0.0000
    41 C41      0.0944  -2.7605 -16.6407   C.ar      1 RES1   0.0000
    42 H42     -0.4181  -1.8597 -16.9618   H         1 RES1   0.0000
    43 N43      3.2523  -4.2108 -16.8421   N.pl3     1 RES1   0.0000
    44 H44      3.7037  -3.5070 -17.4261   H         1 RES1   0.0000
    45 C45     -0.6202  -3.6935 -15.9166   C.ar      1 RES1   0.0000
    46 H46     -1.6635  -3.5377 -15.6629   H         1 RES1   0.0000
    47 C47      1.9548  -4.0414 -16.5414   C.ar      1 RES1   0.0000
    48 N48      1.3851  -2.9047 -16.9677   N.ar      1 RES1   0.0000
    49 C49      4.0424  -5.3734 -16.4373   C.3       1 RES1   0.0000
    50 H50      3.3761  -6.2476 -16.3737   H         1 RES1   0.0000
    51 C51      4.7111  -5.1772 -15.0909   C.ar      1 RES1   0.0000
    52 C52      5.0778  -5.6303 -17.5259   C.3       1 RES1   0.0000
    53 H53      5.6756  -6.5085 -17.2907   H         1 RES1   0.0000
    54 H54      4.5964  -5.7958 -18.4874   H         1 RES1   0.0000
    55 H55      5.7497  -4.7804 -17.6254   H         1 RES1   0.0000
    56 C56      5.9537  -4.8186 -12.6235   C.ar      1 RES1   0.0000
    57 H57      6.4375  -4.6781 -11.6627   H         1 RES1   0.0000
    58 C58      6.0930  -5.2267 -14.9779   C.ar      1 RES1   0.0000
    59 H59      6.6967  -5.4077 -15.8611   H         1 RES1   0.0000
    60 C60      3.9614  -4.9473 -13.9455   C.ar      1 RES1   0.0000
    61 H61      2.8791  -4.9062 -14.0088   H         1 RES1   0.0000
    62 C62      4.5804  -4.7689 -12.7198   C.ar      1 RES1   0.0000
    63 H63      3.9817  -4.5893 -11.8331   H         1 RES1   0.0000
    64 C64      6.7103  -5.0473 -13.7517   C.ar      1 RES1   0.0000
    65 H65      7.7921  -5.0869 -13.6795   H         1 RES1   0.0000
@<TRIPOS>BOND
     1     1     5   ar
     2     1     6   ar
     3     1     2    1
     4     3     8   ar
     5     3     9   ar
     6     3     4    1
     7     5     9   ar
     8     5    11    1
     9     6     8   ar
    10     6     7    1
    11     8    12    1
    12     9    10    1
    13    11    20    2
    14    11    23    1
    15    13    14    1
    16    13    23   am
    17    13    24    1
    18    14    31    1
    19    14    34    1
    20    14    15    1
    21    16    24    1
    22    16    17    1
    23    16    18    1
    24    16    19    1
    25    20    21    1
    26    20    24    1
    27    21    40   ar
    28    21    45   ar
    29    22    23    2
    30    25    34    1
    31    25    37    1
    32    25    26    1
    33    25    27    1
    34    28    31    1
    35    28    37    1
    36    28    29    1
    37    28    30    1
    38    31    32    1
    39    31    33    1
    40    34    35    1
    41    34    36    1
    42    37    38    1
    43    37    39    1
    44    40    47   ar
    45    41    45   ar
    46    41    48   ar
    47    41    42    1
    48    43    47    1
    49    43    49    1
    50    43    44    1
    51    45    46    1
    52    47    48   ar
    53    49    51    1
    54    49    52    1
    55    49    50    1
    56    51    58   ar
    57    51    60   ar
    58    52    53    1
    59    52    54    1
    60    52    55    1
    61    56    62   ar
    62    56    64   ar
    63    56    57    1
    64    58    64   ar
    65    58    59    1
    66    60    62   ar
    67    60    61    1
    68    62    63    1
    69    64    65    1
@<TRIPOS>SUBSTRUCTURE
     1 RES1        1 GROUP             0 ****  ****    0  
@<TRIPOS>MOLECULE
LIGAND_00191
    65    69     1     0     0
SMALL
USER_CHARGES
****
Generated from the CSD

@<TRIPOS>ATOM
     1 C1      -0.8587  -4.2425 -11.5607   C.ar      1 RES1   0.0000
     2 H2      -0.2971  -5.0203 -11.0545   H         1 RES1   0.0000
     3 C3      -2.2542  -2.2317 -12.8417   C.ar      1 RES1   0.0000
     4 H4      -2.7946  -1.4345 -13.3415   H         1 RES1   0.0000
     5 C5      -1.3885  -4.4922 -12.8231   C.ar      1 RES1   0.0000
     6 C6      -1.0284  -3.0185 -10.9381   C.ar      1 RES1   0.0000
     7 H7      -0.6199  -2.8364  -9.9497   H         1 RES1   0.0000
     8 C8      -1.7212  -2.0433 -11.5985   C.ar      1 RES1   0.0000
     9 C9      -2.0892  -3.4639 -13.4472   C.ar      1 RES1   0.0000
    10 H10     -2.5208  -3.6273 -14.4281   H         1 RES1   0.0000
    11 C11     -1.2097  -5.8117 -13.5117   C.2       1 RES1   0.0000
    12 F12     -1.8872  -0.8352 -10.9945   F         1 RES1   0.0000
    13 N13     -1.2096  -7.9451 -14.1373   N.am      1 RES1   0.0000
    14 C14     -1.4380  -9.4241 -14.2679   C.3       1 RES1   0.0000
    15 H15     -0.9910  -9.7535 -15.2047   H         1 RES1   0.0000
    16 C16     -0.2222  -7.7018 -16.4489   C.3       1 RES1   0.0000
    17 H17      0.2891  -6.9425 -17.0370   H         1 RES1   0.0000
    18 H18      0.4329  -8.5671 -16.3703   H         1 RES1   0.0000
    19 H19     -1.1183  -8.0024 -16.9877   H         1 RES1   0.0000
    20 C20     -0.5870  -5.9122 -14.7311   C.2       1 RES1   0.0000
    21 C21      0.0604  -4.8376 -15.5265   C.ar      1 RES1   0.0000
    22 O22     -2.1975  -7.5459 -12.1480   O.2       1 RES1   0.0000
    23 C23     -1.6056  -7.1291 -13.1351   C.2       1 RES1   0.0000
    24 N24     -0.5647  -7.1870 -15.1226   N.pl3     1 RES1   0.0000
    25 C25     -0.9545 -11.6761 -13.2573   C.3       1 RES1   0.0000
    26 H26     -0.4957 -12.1789 -12.4072   H         1 RES1   0.0000
    27 H27     -0.4900 -12.0241 -14.1788   H         1 RES1   0.0000
    28 C28     -3.1193 -11.2852 -14.4032   C.3       1 RES1   0.0000
    29 H29     -2.7191 -11.6338 -15.3541   H         1 RES1   0.0000
    30 H30     -4.1835 -11.5105 -14.3528   H         1 RES1   0.0000
    31 C31     -2.9221  -9.7803 -14.3001   C.3       1 RES1   0.0000
    32 H32     -3.3849  -9.3007 -15.1614   H         1 RES1   0.0000
    33 H33     -3.3945  -9.4209 -13.3871   H         1 RES1   0.0000
    34 C34     -0.7541 -10.1764 -13.1257   C.3       1 RES1   0.0000
    35 H35     -1.1760  -9.8436 -12.1785   H         1 RES1   0.0000
    36 H36      0.3125  -9.9576 -13.1448   H         1 RES1   0.0000
    37 N37     -2.4167 -11.9873 -13.2892   N.4       1 RES1   1.0000
    38 H38     -2.8312 -11.6994 -12.4086   H         1 RES1   0.0000
    39 H39     -2.5351 -12.9884 -13.4076   H         1 RES1   0.0000
    40 N40      1.1204  -4.2311 -14.9697   N.ar      1 RES1   0.0000
    41 C41      0.2729  -3.4391 -17.4122   C.ar      1 RES1   0.0000
    42 H42     -0.0691  -3.1305 -18.3946   H         1 RES1   0.0000
    43 N43      2.7453  -2.6186 -15.1035   N.pl3     1 RES1   0.0000
    44 H44      3.2167  -1.8914 -15.6415   H         1 RES1   0.0000
    45 C45     -0.4048  -4.4607 -16.7778   C.ar      1 RES1   0.0000
    46 H46     -1.2618  -4.9437 -17.2355   H         1 RES1   0.0000
    47 C47      1.6980  -3.2405 -15.6683   C.ar      1 RES1   0.0000
    48 N48      1.3280  -2.8070 -16.8822   N.ar      1 RES1   0.0000
    49 C49      3.2918  -2.9616 -13.7908   C.3       1 RES1   0.0000
    50 H50      3.1416  -4.0384 -13.6169   H         1 RES1   0.0000
    51 C51      2.6231  -2.1934 -12.6677   C.ar      1 RES1   0.0000
    52 C52      4.7893  -2.6796 -13.8254   C.3       1 RES1   0.0000
    53 H53      5.2549  -2.9488 -12.8796   H         1 RES1   0.0000
    54 H54      5.2729  -3.2502 -14.6155   H         1 RES1   0.0000
    55 H55      4.9773  -1.6235 -14.0066   H         1 RES1   0.0000
    56 C56      1.3914  -0.7703 -10.6140   C.ar      1 RES1   0.0000
    57 H57      0.9111  -0.2164  -9.8141   H         1 RES1   0.0000
    58 C58      2.0978  -0.9296 -12.8953   C.ar      1 RES1   0.0000
    59 H59      2.1682  -0.4903 -13.8849   H         1 RES1   0.0000
    60 C60      2.5230  -2.7317 -11.3922   C.ar      1 RES1   0.0000
    61 H61      2.9279  -3.7177 -11.1898   H         1 RES1   0.0000
    62 C62      1.9102  -2.0233 -10.3724   C.ar      1 RES1   0.0000
    63 H63      1.8386  -2.4569  -9.3805   H         1 RES1   0.0000
    64 C64      1.4848  -0.2230 -11.8746   C.ar      1 RES1   0.0000
    65 H65      1.0772   0.7636 -12.0684   H         1 RES1   0.0000
@<TRIPOS>BOND
     1     1     5   ar
     2     1     6   ar
     3     1     2    1
     4     3     8   ar
     5     3     9   ar
     6     3     4    1
     7     5     9   ar
     8     5    11    1
     9     6     8   ar
    10     6     7    1
    11     8    12    1
    12     9    10    1
    13    11    20    2
    14    11    23    1
    15    13    14    1
    16    13    23   am
    17    13    24    1
    18    14    31    1
    19    14    34    1
    20    14    15    1
    21    16    24    1
    22    16    17    1
    23    16    18    1
    24    16    19    1
    25    20    21    1
    26    20    24    1
    27    21    40   ar
    28    21    45   ar
    29    22    23    2
    30    25    34    1
    31    25    37    1
    32    25    26    1
    33    25    27    1
    34    28    31    1
    35    28    37    1
    36    28    29    1
    37    28    30    1
    38    31    32    1
    39    31    33    1
    40    34    35    1
    41    34    36    1
    42    37    38    1
    43    37    39    1
    44    40    47   ar
    45    41    45   ar
    46    41    48   ar
    47    41    42    1
    48    43    47    1
    49    43    49    1
    50    43    44    1
    51    45    46    1
    52    47    48   ar
    53    49    51    1
    54    49    52    1
    55    49    50    1
    56    51    58   ar
    57    51    60   ar
    58    52    53    1
    59    52    54    1
    60    52    55    1
    61    56    62   ar
    62    56    64   ar
    63    56    57    1
    64    58    64   ar
    65    58    59    1
    66    60    62   ar
    67    60    61    1
    68    62    63    1
    69    64    65    1
@<TRIPOS>SUBSTRUCTURE
     1 RES1        1 GROUP             0 ****  ****    0  
@<TRIPOS>MOLECULE
LIGAND_00192
    65    69     1     0     0
SMALL
USER_CHARGES
****
Generated from the CSD

@<TRIPOS>ATOM
     1 C1       1.3635  -5.6372 -11.3201   C.ar      1 RES1   0.0000
     2 H2       1.6392  -6.6844 -11.2578   H         1 RES1   0.0000
     3 C3       0.7066  -2.9585 -11.4786   C.ar      1 RES1   0.0000
     4 H4       0.4595  -1.9038 -11.5393   H         1 RES1   0.0000
     5 C5       0.4604  -5.2241 -12.2950   C.ar      1 RES1   0.0000
     6 C6       1.9232  -4.7378 -10.4299   C.ar      1 RES1   0.0000
     7 H7       2.6190  -5.0709  -9.6671   H         1 RES1   0.0000
     8 C8       1.5804  -3.4193 -10.5355   C.ar      1 RES1   0.0000
     9 C9       0.1439  -3.8697 -12.3534   C.ar      1 RES1   0.0000
    10 H10     -0.5615  -3.5154 -13.0964   H         1 RES1   0.0000
    11 C11     -0.1512  -6.1860 -13.2685   C.2       1 RES1   0.0000
    12 F12      2.1313  -2.5282  -9.6669   F         1 RES1   0.0000
    13 N13     -1.2406  -7.9410 -14.1570   N.am      1 RES1   0.0000
    14 C14     -1.5106  -9.4109 -14.3092   C.3       1 RES1   0.0000
    15 H15     -1.2165  -9.7060 -15.3154   H         1 RES1   0.0000
    16 C16     -1.3876  -7.1276 -16.4280   C.3       1 RES1   0.0000
    17 H17     -0.7384  -7.0978 -17.3006   H         1 RES1   0.0000
    18 H18     -2.0590  -7.9772 -16.5346   H         1 RES1   0.0000
    19 H19     -1.9875  -6.2200 -16.4198   H         1 RES1   0.0000
    20 C20     -0.0279  -6.1202 -14.6126   C.2       1 RES1   0.0000
    21 C21      0.6269  -5.0726 -15.4374   C.ar      1 RES1   0.0000
    22 O22     -1.1910  -7.8605 -11.8611   O.2       1 RES1   0.0000
    23 C23     -0.9103  -7.3619 -12.9432   C.2       1 RES1   0.0000
    24 N24     -0.6005  -7.2381 -15.1994   N.3       1 RES1   0.0000
    25 C25     -0.9166 -11.7076 -13.4731   C.3       1 RES1   0.0000
    26 H26     -0.3425 -12.2497 -12.7231   H         1 RES1   0.0000
    27 H27     -0.6032 -12.0221 -14.4675   H         1 RES1   0.0000
    28 C28     -3.2234 -11.2473 -14.2597   C.3       1 RES1   0.0000
    29 H29     -2.9780 -11.5605 -15.2734   H         1 RES1   0.0000
    30 H30     -4.2713 -11.4635 -14.0566   H         1 RES1   0.0000
    31 C31     -2.9881  -9.7501 -14.1290   C.3       1 RES1   0.0000
    32 H32     -3.5682  -9.2306 -14.8902   H         1 RES1   0.0000
    33 H33     -3.3105  -9.4238 -13.1413   H         1 RES1   0.0000
    34 C34     -0.6738 -10.2168 -13.3148   C.3       1 RES1   0.0000
    35 H35     -0.9415  -9.9189 -12.3021   H         1 RES1   0.0000
    36 H36      0.3810 -10.0085 -13.4876   H         1 RES1   0.0000
    37 N37     -2.3716 -12.0020 -13.2941   N.4       1 RES1   1.0000
    38 H38     -2.6429 -11.7464 -12.3500   H         1 RES1   0.0000
    39 H39     -2.5232 -12.9961 -13.4322   H         1 RES1   0.0000
    40 N40     -0.1457  -4.0508 -15.8381   N.ar      1 RES1   0.0000
    41 C41      2.4551  -4.1135 -16.5753   C.ar      1 RES1   0.0000
    42 H42      3.5011  -4.1422 -16.8624   H         1 RES1   0.0000
    43 N43     -0.3478  -2.0993 -17.0253   N.pl3     1 RES1   0.0000
    44 H44     -1.3373  -2.1222 -16.7788   H         1 RES1   0.0000
    45 C45      1.9657  -5.1409 -15.7940   C.ar      1 RES1   0.0000
    46 H46      2.5978  -5.9636 -15.4765   H         1 RES1   0.0000
    47 C47      0.4289  -3.1110 -16.6060   C.ar      1 RES1   0.0000
    48 N48      1.7106  -3.0842 -16.9995   N.ar      1 RES1   0.0000
    49 C49      0.1226  -0.9989 -17.8663   C.3       1 RES1   0.0000
    50 H50      0.9055  -1.3801 -18.5402   H         1 RES1   0.0000
    51 C51      0.6995   0.1437 -17.0539   C.ar      1 RES1   0.0000
    52 C52     -1.0554  -0.5254 -18.7097   C.3       1 RES1   0.0000
    53 H53     -0.7525   0.2753 -19.3812   H         1 RES1   0.0000
    54 H54     -1.4534  -1.3398 -19.3114   H         1 RES1   0.0000
    55 H55     -1.8559  -0.1504 -18.0754   H         1 RES1   0.0000
    56 C56      1.7458   2.2450 -15.5538   C.ar      1 RES1   0.0000
    57 H57      2.1537   3.0628 -14.9691   H         1 RES1   0.0000
    58 C58     -0.0842   0.8114 -16.1237   C.ar      1 RES1   0.0000
    59 H59     -1.1169   0.5116 -15.9794   H         1 RES1   0.0000
    60 C60      2.0166   0.5485 -17.2217   C.ar      1 RES1   0.0000
    61 H61      2.6481   0.0426 -17.9445   H         1 RES1   0.0000
    62 C62      2.5355   1.5929 -16.4751   C.ar      1 RES1   0.0000
    63 H63      3.5669   1.8980 -16.6165   H         1 RES1   0.0000
    64 C64      0.4365   1.8549 -15.3775   C.ar      1 RES1   0.0000
    65 H65     -0.1882   2.3661 -14.6527   H         1 RES1   0.0000
@<TRIPOS>BOND
     1     1     5   ar
     2     1     6   ar
     3     1     2    1
     4     3     8   ar
     5     3     9   ar
     6     3     4    1
     7     5     9   ar
     8     5    11    1
     9     6     8   ar
    10     6     7    1
    11     8    12    1
    12     9    10    1
    13    11    20    2
    14    11    23    1
    15    13    14    1
    16    13    23   am
    17    13    24    1
    18    14    31    1
    19    14    34    1
    20    14    15    1
    21    16    24    1
    22    16    17    1
    23    16    18    1
    24    16    19    1
    25    20    21    1
    26    20    24    1
    27    21    40   ar
    28    21    45   ar
    29    22    23    2
    30    25    34    1
    31    25    37    1
    32    25    26    1
    33    25    27    1
    34    28    31    1
    35    28    37    1
    36    28    29    1
    37    28    30    1
    38    31    32    1
    39    31    33    1
    40    34    35    1
    41    34    36    1
    42    37    38    1
    43    37    39    1
    44    40    47   ar
    45    41    45   ar
    46    41    48   ar
    47    41    42    1
    48    43    47    1
    49    43    49    1
    50    43    44    1
    51    45    46    1
    52    47    48   ar
    53    49    51    1
    54    49    52    1
    55    49    50    1
    56    51    58   ar
    57    51    60   ar
    58    52    53    1
    59    52    54    1
    60    52    55    1
    61    56    62   ar
    62    56    64   ar
    63    56    57    1
    64    58    64   ar
    65    58    59    1
    66    60    62   ar
    67    60    61    1
    68    62    63    1
    69    64    65    1
@<TRIPOS>SUBSTRUCTURE
     1 RES1        1 GROUP             0 ****  ****    0  
@<TRIPOS>MOLECULE
LIGAND_00193
    65    69     1     0     0
SMALL
USER_CHARGES
****
Generated from the CSD

@<TRIPOS>ATOM
     1 C1      -0.7655  -3.8365 -15.9787   C.ar      1 RES1   0.0000
     2 H2      -1.6378  -4.2799 -16.4467   H         1 RES1   0.0000
     3 C3       1.4327  -2.6675 -14.7817   C.ar      1 RES1   0.0000
     4 H4       2.2908  -2.1983 -14.3119   H         1 RES1   0.0000
     5 C5      -0.1369  -4.5041 -14.9318   C.ar      1 RES1   0.0000
     6 C6      -0.3040  -2.6137 -16.4329   C.ar      1 RES1   0.0000
     7 H7      -0.7949  -2.1054 -17.2561   H         1 RES1   0.0000
     8 C8       0.7838  -2.0601 -15.8186   C.ar      1 RES1   0.0000
     9 C9       0.9697  -3.8956 -14.3463   C.ar      1 RES1   0.0000
    10 H10      1.4869  -4.3918 -13.5331   H         1 RES1   0.0000
    11 C11     -0.6275  -5.8274 -14.4265   C.2       1 RES1   0.0000
    12 F12      1.2398  -0.8550 -16.2565   F         1 RES1   0.0000
    13 N13     -1.1811  -7.9592 -14.1232   N.am      1 RES1   0.0000
    14 C14     -1.3693  -9.4451 -14.2381   C.3       1 RES1   0.0000
    15 H15     -0.9783  -9.7615 -15.2040   H         1 RES1   0.0000
    16 C16     -1.8827  -7.8670 -11.6990   C.3       1 RES1   0.0000
    17 H17     -2.4348  -7.1702 -11.0718   H         1 RES1   0.0000
    18 H18     -2.5099  -8.7397 -11.8688   H         1 RES1   0.0000
    19 H19     -0.9972  -8.1865 -11.1535   H         1 RES1   0.0000
    20 C20     -1.1594  -5.9688 -13.1688   C.2       1 RES1   0.0000
    21 C21     -1.4160  -4.9157 -12.1531   C.ar      1 RES1   0.0000
    22 O22     -0.2739  -7.4980 -16.1374   O.2       1 RES1   0.0000
    23 C23     -0.6482  -7.1166 -15.0361   C.2       1 RES1   0.0000
    24 N24     -1.5101  -7.2398 -12.9674   N.pl3     1 RES1   0.0000
    25 C25     -0.7425 -11.6781 -13.2646   C.3       1 RES1   0.0000
    26 H26     -0.2091 -12.1638 -12.4488   H         1 RES1   0.0000
    27 H27     -0.3324 -12.0124 -14.2164   H         1 RES1   0.0000
    28 C28     -2.9938 -11.3607 -14.2561   C.3       1 RES1   0.0000
    29 H29     -2.6498 -11.6978 -15.2329   H         1 RES1   0.0000
    30 H30     -4.0439 -11.6207 -14.1315   H         1 RES1   0.0000
    31 C31     -2.8395  -9.8499 -14.1666   C.3       1 RES1   0.0000
    32 H32     -3.3769  -9.3874 -14.9932   H         1 RES1   0.0000
    33 H33     -3.2585  -9.5045 -13.2226   H         1 RES1   0.0000
    34 C34     -0.5829 -10.1723 -13.1467   C.3       1 RES1   0.0000
    35 H35     -0.9482  -9.8517 -12.1722   H         1 RES1   0.0000
    36 H36      0.4721  -9.9187 -13.2403   H         1 RES1   0.0000
    37 N37     -2.1923 -12.0372 -13.1942   N.4       1 RES1   1.0000
    38 H38     -2.5535 -11.7613 -12.2867   H         1 RES1   0.0000
    39 H39     -2.2858 -13.0418 -13.3045   H         1 RES1   0.0000
    40 N40     -2.6992  -4.6898 -11.8302   N.ar      1 RES1   0.0000
    41 C41     -0.7580  -3.2243 -10.6488   C.ar      1 RES1   0.0000
    42 H42      0.0265  -2.6440 -10.1743   H         1 RES1   0.0000
    43 N43     -4.2293  -3.4806 -10.6241   N.pl3     1 RES1   0.0000
    44 H44     -4.9475  -4.0098 -11.1185   H         1 RES1   0.0000
    45 C45     -0.3913  -4.1856 -11.5689   C.ar      1 RES1   0.0000
    46 H46      0.6486  -4.3597 -11.8246   H         1 RES1   0.0000
    47 C47     -2.9451  -3.7222 -10.9322   C.ar      1 RES1   0.0000
    48 N48     -2.0280  -2.9671 -10.3100   N.ar      1 RES1   0.0000
    49 C49     -4.6654  -2.4618  -9.6694   C.3       1 RES1   0.0000
    50 H50     -3.9510  -1.6244  -9.6966   H         1 RES1   0.0000
    51 C51     -4.7347  -2.9912  -8.2505   C.ar      1 RES1   0.0000
    52 C52     -6.0275  -1.9528 -10.1265   C.3       1 RES1   0.0000
    53 H53     -6.3118  -1.0601  -9.5732   H         1 RES1   0.0000
    54 H54     -6.0130  -1.7046 -11.1857   H         1 RES1   0.0000
    55 H55     -6.7936  -2.7085  -9.9662   H         1 RES1   0.0000
    56 C56     -4.8733  -3.9539  -5.6401   C.ar      1 RES1   0.0000
    57 H57     -4.9277  -4.3295  -4.6236   H         1 RES1   0.0000
    58 C58     -5.6349  -2.4533  -7.3421   C.ar      1 RES1   0.0000
    59 H59     -6.2923  -1.6477  -7.6521   H         1 RES1   0.0000
    60 C60     -3.9026  -4.0188  -7.8280   C.ar      1 RES1   0.0000
    61 H61     -3.1894  -4.4541  -8.5200   H         1 RES1   0.0000
    62 C62     -3.9729  -4.4966  -6.5302   C.ar      1 RES1   0.0000
    63 H63     -3.3167  -5.3007  -6.2142   H         1 RES1   0.0000
    64 C64     -5.7043  -2.9327  -6.0451   C.ar      1 RES1   0.0000
    65 H65     -6.4147  -2.5031  -5.3467   H         1 RES1   0.0000
@<TRIPOS>BOND
     1     1     5   ar
     2     1     6   ar
     3     1     2    1
     4     3     8   ar
     5     3     9   ar
     6     3     4    1
     7     5     9   ar
     8     5    11    1
     9     6     8   ar
    10     6     7    1
    11     8    12    1
    12     9    10    1
    13    11    20    2
    14    11    23    1
    15    13    14    1
    16    13    23   am
    17    13    24    1
    18    14    31    1
    19    14    34    1
    20    14    15    1
    21    16    24    1
    22    16    17    1
    23    16    18    1
    24    16    19    1
    25    20    21    1
    26    20    24    1
    27    21    40   ar
    28    21    45   ar
    29    22    23    2
    30    25    34    1
    31    25    37    1
    32    25    26    1
    33    25    27    1
    34    28    31    1
    35    28    37    1
    36    28    29    1
    37    28    30    1
    38    31    32    1
    39    31    33    1
    40    34    35    1
    41    34    36    1
    42    37    38    1
    43    37    39    1
    44    40    47   ar
    45    41    45   ar
    46    41    48   ar
    47    41    42    1
    48    43    47    1
    49    43    49    1
    50    43    44    1
    51    45    46    1
    52    47    48   ar
    53    49    51    1
    54    49    52    1
    55    49    50    1
    56    51    58   ar
    57    51    60   ar
    58    52    53    1
    59    52    54    1
    60    52    55    1
    61    56    62   ar
    62    56    64   ar
    63    56    57    1
    64    58    64   ar
    65    58    59    1
    66    60    62   ar
    67    60    61    1
    68    62    63    1
    69    64    65    1
@<TRIPOS>SUBSTRUCTURE
     1 RES1        1 GROUP             0 ****  ****    0  
@<TRIPOS>MOLECULE
LIGAND_00194
    65    69     1     0     0
SMALL
USER_CHARGES
****
Generated from the CSD

@<TRIPOS>ATOM
     1 C1      -0.1734  -3.7512 -12.4311   C.ar      1 RES1   0.0000
     2 H2       0.8163  -4.1080 -12.6950   H         1 RES1   0.0000
     3 C3      -2.6840  -2.8012 -11.7784   C.ar      1 RES1   0.0000
     4 H4      -3.6669  -2.4178 -11.5253   H         1 RES1   0.0000
     5 C5      -1.2881  -4.5128 -12.7691   C.ar      1 RES1   0.0000
     6 C6      -0.3010  -2.5429 -11.7691   C.ar      1 RES1   0.0000
     7 H7       0.5745  -1.9608 -11.5013   H         1 RES1   0.0000
     8 C8      -1.5563  -2.0986 -11.4624   C.ar      1 RES1   0.0000
     9 C9      -2.5420  -4.0138 -12.4278   C.ar      1 RES1   0.0000
    10 H10     -3.4308  -4.5851 -12.6702   H         1 RES1   0.0000
    11 C11     -1.1659  -5.8217 -13.4895   C.2       1 RES1   0.0000
    12 F12     -1.6896  -0.9084 -10.8162   F         1 RES1   0.0000
    13 N13     -1.2406  -7.9410 -14.1570   N.am      1 RES1   0.0000
    14 C14     -1.5106  -9.4109 -14.3092   C.3       1 RES1   0.0000
    15 H15     -1.1035  -9.7318 -15.2670   H         1 RES1   0.0000
    16 C16     -0.3252  -7.6743 -16.4955   C.3       1 RES1   0.0000
    17 H17     -0.2978  -6.8543 -17.2102   H         1 RES1   0.0000
    18 H18      0.6368  -8.1816 -16.5253   H         1 RES1   0.0000
    19 H19     -1.0903  -8.3784 -16.8158   H         1 RES1   0.0000
    20 C20     -0.5870  -5.9122 -14.7311   C.2       1 RES1   0.0000
    21 C21      0.0604  -4.8376 -15.5265   C.ar      1 RES1   0.0000
    22 O22     -2.1510  -7.5590 -12.1278   O.2       1 RES1   0.0000
    23 C23     -1.5821  -7.1365 -13.1259   C.2       1 RES1   0.0000
    24 N24     -0.6101  -7.1788 -15.1485   N.pl3     1 RES1   0.0000
    25 C25     -1.0509 -11.6946 -13.3605   C.3       1 RES1   0.0000
    26 H26     -0.5769 -12.2260 -12.5365   H         1 RES1   0.0000
    27 H27     -0.6263 -12.0348 -14.3038   H         1 RES1   0.0000
    28 C28     -3.2420 -11.2269 -14.4245   C.3       1 RES1   0.0000
    29 H29     -2.8826 -11.5654 -15.3952   H         1 RES1   0.0000
    30 H30     -4.3093 -11.4269 -14.3427   H         1 RES1   0.0000
    31 C31     -3.0035  -9.7297 -14.2983   C.3       1 RES1   0.0000
    32 H32     -3.4824  -9.2211 -15.1338   H         1 RES1   0.0000
    33 H33     -3.4360  -9.3778 -13.3629   H         1 RES1   0.0000
    34 C34     -0.8083 -10.2033 -13.2059   C.3       1 RES1   0.0000
    35 H35     -1.1899  -9.8799 -12.2386   H         1 RES1   0.0000
    36 H36      0.2623 -10.0106 -13.2567   H         1 RES1   0.0000
    37 N37     -2.5207 -11.9690 -13.3491   N.4       1 RES1   1.0000
    38 H38     -2.8983 -11.6892 -12.4494   H         1 RES1   0.0000
    39 H39     -2.6684 -12.9641 -13.4833   H         1 RES1   0.0000
    40 N40     -0.7059  -3.7852 -15.8536   N.ar      1 RES1   0.0000
    41 C41      1.8690  -3.8559 -16.6763   C.ar      1 RES1   0.0000
    42 H42      2.9047  -3.8883 -16.9980   H         1 RES1   0.0000
    43 N43     -0.9099  -1.7764 -16.9406   N.pl3     1 RES1   0.0000
    44 H44     -0.4775  -1.0148 -17.4634   H         1 RES1   0.0000
    45 C45      1.3859  -4.9110 -15.9288   C.ar      1 RES1   0.0000
    46 H46      2.0127  -5.7582 -15.6708   H         1 RES1   0.0000
    47 C47     -0.1387  -2.8196 -16.5946   C.ar      1 RES1   0.0000
    48 N48      1.1302  -2.7954 -17.0275   N.ar      1 RES1   0.0000
    49 C49     -2.3152  -1.6343 -16.5607   C.3       1 RES1   0.0000
    50 H50     -2.4618  -2.0976 -15.5727   H         1 RES1   0.0000
    51 C51     -3.2515  -2.3004 -17.5498   C.ar      1 RES1   0.0000
    52 C52     -2.6151  -0.1442 -16.4475   C.3       1 RES1   0.0000
    53 H53     -3.6440   0.0199 -16.1341   H         1 RES1   0.0000
    54 H54     -1.9597   0.3288 -15.7192   H         1 RES1   0.0000
    55 H55     -2.4701   0.3508 -17.4054   H         1 RES1   0.0000
    56 C56     -4.9664  -3.5151 -19.3785   C.ar      1 RES1   0.0000
    57 H57     -5.6338  -3.9887 -20.0907   H         1 RES1   0.0000
    58 C58     -3.2736  -1.8987 -18.8776   C.ar      1 RES1   0.0000
    59 H59     -2.6154  -1.1017 -19.2074   H         1 RES1   0.0000
    60 C60     -4.1055  -3.3201 -17.1527   C.ar      1 RES1   0.0000
    61 H61     -4.1073  -3.6499 -16.1191   H         1 RES1   0.0000
    62 C62     -4.9571  -3.9232 -18.0628   C.ar      1 RES1   0.0000
    63 H63     -5.6187  -4.7194 -17.7383   H         1 RES1   0.0000
    64 C64     -4.1252  -2.5034 -19.7865   C.ar      1 RES1   0.0000
    65 H65     -4.1298  -2.1795 -20.8219   H         1 RES1   0.0000
@<TRIPOS>BOND
     1     1     5   ar
     2     1     6   ar
     3     1     2    1
     4     3     8   ar
     5     3     9   ar
     6     3     4    1
     7     5     9   ar
     8     5    11    1
     9     6     8   ar
    10     6     7    1
    11     8    12    1
    12     9    10    1
    13    11    20    2
    14    11    23    1
    15    13    14    1
    16    13    23   am
    17    13    24    1
    18    14    31    1
    19    14    34    1
    20    14    15    1
    21    16    24    1
    22    16    17    1
    23    16    18    1
    24    16    19    1
    25    20    21    1
    26    20    24    1
    27    21    40   ar
    28    21    45   ar
    29    22    23    2
    30    25    34    1
    31    25    37    1
    32    25    26    1
    33    25    27    1
    34    28    31    1
    35    28    37    1
    36    28    29    1
    37    28    30    1
    38    31    32    1
    39    31    33    1
    40    34    35    1
    41    34    36    1
    42    37    38    1
    43    37    39    1
    44    40    47   ar
    45    41    45   ar
    46    41    48   ar
    47    41    42    1
    48    43    47    1
    49    43    49    1
    50    43    44    1
    51    45    46    1
    52    47    48   ar
    53    49    51    1
    54    49    52    1
    55    49    50    1
    56    51    58   ar
    57    51    60   ar
    58    52    53    1
    59    52    54    1
    60    52    55    1
    61    56    62   ar
    62    56    64   ar
    63    56    57    1
    64    58    64   ar
    65    58    59    1
    66    60    62   ar
    67    60    61    1
    68    62    63    1
    69    64    65    1
@<TRIPOS>SUBSTRUCTURE
     1 RES1        1 GROUP             0 ****  ****    0  
@<TRIPOS>MOLECULE
LIGAND_00195
    65    69     1     0     0
SMALL
USER_CHARGES
****
Generated from the CSD

@<TRIPOS>ATOM
     1 C1      -0.5581  -4.3301 -11.5224   C.ar      1 RES1   0.0000
     2 H2       0.0336  -5.1339 -11.0979   H         1 RES1   0.0000
     3 C3      -2.0292  -2.2540 -12.5982   C.ar      1 RES1   0.0000
     4 H4      -2.5987  -1.4314 -13.0178   H         1 RES1   0.0000
     5 C5      -1.2153  -4.5297 -12.7328   C.ar      1 RES1   0.0000
     6 C6      -0.6388  -3.1236 -10.8499   C.ar      1 RES1   0.0000
     7 H7      -0.1309  -2.9806  -9.9020   H         1 RES1   0.0000
     8 C8      -1.3720  -2.1151 -11.4090   C.ar      1 RES1   0.0000
     9 C9      -1.9516  -3.4692 -13.2533   C.ar      1 RES1   0.0000
    10 H10     -2.4814  -3.5933 -14.1909   H         1 RES1   0.0000
    11 C11     -1.1341  -5.8298 -13.4746   C.2       1 RES1   0.0000
    12 F12     -1.4513  -0.9238 -10.7559   F         1 RES1   0.0000
    13 N13     -1.2632  -7.9374 -14.1705   N.am      1 RES1   0.0000
    14 C14     -1.5632  -9.3998 -14.3371   C.3       1 RES1   0.0000
    15 H15     -1.1852  -9.7137 -15.3090   H         1 RES1   0.0000
    16 C16     -0.3996  -7.6523 -16.5265   C.3       1 RES1   0.0000
    17 H17      0.2965  -6.9984 -17.0476   H         1 RES1   0.0000
    18 H18      0.0234  -8.6547 -16.5125   H         1 RES1   0.0000
    19 H19     -1.3268  -7.6832 -17.0948   H         1 RES1   0.0000
    20 C20     -0.5870  -5.9122 -14.7311   C.2       1 RES1   0.0000
    21 C21      0.0604  -4.8376 -15.5265   C.ar      1 RES1   0.0000
    22 O22     -2.1174  -7.5693 -12.1145   O.2       1 RES1   0.0000
    23 C23     -1.5652  -7.1422 -13.1199   C.2       1 RES1   0.0000
    24 N24     -0.6430  -7.1718 -15.1659   N.pl3     1 RES1   0.0000
    25 C25     -1.1222 -11.7051 -13.4327   C.3       1 RES1   0.0000
    26 H26     -0.6383 -12.2569 -12.6282   H         1 RES1   0.0000
    27 H27     -0.7267 -12.0388 -14.3909   H         1 RES1   0.0000
    28 C28     -3.3295 -11.1829 -14.4364   C.3       1 RES1   0.0000
    29 H29     -2.9998 -11.5134 -15.4202   H         1 RES1   0.0000
    30 H30     -4.3980 -11.3652 -14.3315   H         1 RES1   0.0000
    31 C31     -3.0610  -9.6923 -14.2946   C.3       1 RES1   0.0000
    32 H32     -3.5506  -9.1630 -15.1107   H         1 RES1   0.0000
    33 H33     -3.4645  -9.3466 -13.3440   H         1 RES1   0.0000
    34 C34     -0.8491 -10.2208 -13.2627   C.3       1 RES1   0.0000
    35 H35     -1.2014  -9.9050 -12.2819   H         1 RES1   0.0000
    36 H36      0.2233 -10.0463 -13.3368   H         1 RES1   0.0000
    37 N37     -2.5961 -11.9535 -13.3895   N.4       1 RES1   1.0000
    38 H38     -2.9468 -11.6804 -12.4770   H         1 RES1   0.0000
    39 H39     -2.7649 -12.9438 -13.5344   H         1 RES1   0.0000
    40 N40     -0.7059  -3.7852 -15.8536   N.ar      1 RES1   0.0000
    41 C41      1.8690  -3.8559 -16.6763   C.ar      1 RES1   0.0000
    42 H42      2.9047  -3.8883 -16.9980   H         1 RES1   0.0000
    43 N43     -0.9099  -1.7764 -16.9406   N.pl3     1 RES1   0.0000
    44 H44     -0.4775  -1.0148 -17.4634   H         1 RES1   0.0000
    45 C45      1.3859  -4.9110 -15.9288   C.ar      1 RES1   0.0000
    46 H46      2.0127  -5.7582 -15.6708   H         1 RES1   0.0000
    47 C47     -0.1387  -2.8196 -16.5946   C.ar      1 RES1   0.0000
    48 N48      1.1302  -2.7954 -17.0275   N.ar      1 RES1   0.0000
    49 C49     -2.3152  -1.6343 -16.5607   C.3       1 RES1   0.0000
    50 H50     -2.4618  -2.0975 -15.5727   H         1 RES1   0.0000
    51 C51     -3.2515  -2.3004 -17.5498   C.ar      1 RES1   0.0000
    52 C52     -2.6152  -0.1442 -16.4475   C.3       1 RES1   0.0000
    53 H53     -3.6440   0.0199 -16.1342   H         1 RES1   0.0000
    54 H54     -1.9597   0.3288 -15.7193   H         1 RES1   0.0000
    55 H55     -2.4701   0.3507 -17.4055   H         1 RES1   0.0000
    56 C56     -4.9664  -3.5152 -19.3784   C.ar      1 RES1   0.0000
    57 H57     -5.6338  -3.9889 -20.0906   H         1 RES1   0.0000
    58 C58     -3.2736  -1.8988 -18.8776   C.ar      1 RES1   0.0000
    59 H59     -2.6154  -1.1018 -19.2074   H         1 RES1   0.0000
    60 C60     -4.1055  -3.3201 -17.1526   C.ar      1 RES1   0.0000
    61 H61     -4.1072  -3.6499 -16.1190   H         1 RES1   0.0000
    62 C62     -4.9571  -3.9233 -18.0627   C.ar      1 RES1   0.0000
    63 H63     -5.6186  -4.7195 -17.7381   H         1 RES1   0.0000
    64 C64     -4.1252  -2.5035 -19.7864   C.ar      1 RES1   0.0000
    65 H65     -4.1298  -2.1797 -20.8219   H         1 RES1   0.0000
@<TRIPOS>BOND
     1     1     5   ar
     2     1     6   ar
     3     1     2    1
     4     3     8   ar
     5     3     9   ar
     6     3     4    1
     7     5     9   ar
     8     5    11    1
     9     6     8   ar
    10     6     7    1
    11     8    12    1
    12     9    10    1
    13    11    20    2
    14    11    23    1
    15    13    14    1
    16    13    23   am
    17    13    24    1
    18    14    31    1
    19    14    34    1
    20    14    15    1
    21    16    24    1
    22    16    17    1
    23    16    18    1
    24    16    19    1
    25    20    21    1
    26    20    24    1
    27    21    40   ar
    28    21    45   ar
    29    22    23    2
    30    25    34    1
    31    25    37    1
    32    25    26    1
    33    25    27    1
    34    28    31    1
    35    28    37    1
    36    28    29    1
    37    28    30    1
    38    31    32    1
    39    31    33    1
    40    34    35    1
    41    34    36    1
    42    37    38    1
    43    37    39    1
    44    40    47   ar
    45    41    45   ar
    46    41    48   ar
    47    41    42    1
    48    43    47    1
    49    43    49    1
    50    43    44    1
    51    45    46    1
    52    47    48   ar
    53    49    51    1
    54    49    52    1
    55    49    50    1
    56    51    58   ar
    57    51    60   ar
    58    52    53    1
    59    52    54    1
    60    52    55    1
    61    56    62   ar
    62    56    64   ar
    63    56    57    1
    64    58    64   ar
    65    58    59    1
    66    60    62   ar
    67    60    61    1
    68    62    63    1
    69    64    65    1
@<TRIPOS>SUBSTRUCTURE
     1 RES1        1 GROUP             0 ****  ****    0  
@<TRIPOS>MOLECULE
LIGAND_00196
    65    69     1     0     0
SMALL
USER_CHARGES
****
Generated from the CSD

@<TRIPOS>ATOM
     1 C1       0.3359  -4.0444 -15.7323   C.ar      1 RES1   0.0000
     2 H2      -0.3718  -4.4422 -16.4516   H         1 RES1   0.0000
     3 C3       2.1186  -2.9892 -13.9046   C.ar      1 RES1   0.0000
     4 H4       2.8149  -2.5644 -13.1891   H         1 RES1   0.0000
     5 C5       0.5126  -4.6946 -14.5146   C.ar      1 RES1   0.0000
     6 C6       1.0410  -2.8953 -16.0437   C.ar      1 RES1   0.0000
     7 H7       0.9036  -2.4008 -16.9995   H         1 RES1   0.0000
     8 C8       1.9135  -2.3965 -15.1178   C.ar      1 RES1   0.0000
     9 C9       1.4177  -4.1446 -13.6113   C.ar      1 RES1   0.0000
    10 H10      1.5844  -4.6299 -12.6564   H         1 RES1   0.0000
    11 C11     -0.2467  -5.9380 -14.1617   C.2       1 RES1   0.0000
    12 F12      2.6063  -1.2636 -15.4151   F         1 RES1   0.0000
    13 N13     -1.2406  -7.9410 -14.1570   N.am      1 RES1   0.0000
    14 C14     -1.5106  -9.4109 -14.3092   C.3       1 RES1   0.0000
    15 H15     -0.9491  -9.7701 -15.1704   H         1 RES1   0.0000
    16 C16     -2.9634  -7.4981 -12.4712   C.3       1 RES1   0.0000
    17 H17     -3.2161  -6.7695 -11.7036   H         1 RES1   0.0000
    18 H18     -3.7034  -7.4237 -13.2653   H         1 RES1   0.0000
    19 H19     -3.0343  -8.4914 -12.0331   H         1 RES1   0.0000
    20 C20     -1.0688  -6.0097 -13.0848   C.2       1 RES1   0.0000
    21 C21     -1.4087  -4.9383 -12.1137   C.ar      1 RES1   0.0000
    22 O22      0.2750  -7.5989 -15.8623   O.2       1 RES1   0.0000
    23 C23     -0.3156  -7.1911 -14.8707   C.2       1 RES1   0.0000
    24 N24     -1.6169  -7.2574 -12.9912   N.3       1 RES1   0.0000
    25 C25     -1.2720 -11.6681 -13.2251   C.3       1 RES1   0.0000
    26 H26     -0.9608 -12.1784 -12.3149   H         1 RES1   0.0000
    27 H27     -0.6961 -12.0463 -14.0684   H         1 RES1   0.0000
    28 C28     -3.2328 -11.2030 -14.6711   C.3       1 RES1   0.0000
    29 H29     -2.7164 -11.5797 -15.5528   H         1 RES1   0.0000
    30 H30     -4.3020 -11.3838 -14.7718   H         1 RES1   0.0000
    31 C31     -2.9887  -9.7063 -14.5509   C.3       1 RES1   0.0000
    32 H32     -3.3033  -9.2190 -15.4725   H         1 RES1   0.0000
    33 H33     -3.5708  -9.3164 -13.7171   H         1 RES1   0.0000
    34 C34     -1.0290 -10.1763 -13.0760   C.3       1 RES1   0.0000
    35 H35     -1.5670  -9.8145 -12.2011   H         1 RES1   0.0000
    36 H36      0.0378 -10.0017 -12.9440   H         1 RES1   0.0000
    37 N37     -2.7266 -11.9193 -13.4635   N.4       1 RES1   1.0000
    38 H38     -3.2498 -11.6036 -12.6531   H         1 RES1   0.0000
    39 H39     -2.8693 -12.9161 -13.5911   H         1 RES1   0.0000
    40 N40     -1.0980  -5.1692 -10.8285   N.ar      1 RES1   0.0000
    41 C41     -2.3055  -2.8456 -11.5027   C.ar      1 RES1   0.0000
    42 H42     -2.7847  -1.9129 -11.7813   H         1 RES1   0.0000
    43 N43     -1.1330  -4.4573  -8.6489   N.pl3     1 RES1   0.0000
    44 H44     -0.7298  -5.3631  -8.4095   H         1 RES1   0.0000
    45 C45     -2.0280  -3.7587 -12.5000   C.ar      1 RES1   0.0000
    46 H46     -2.2846  -3.5636 -13.5360   H         1 RES1   0.0000
    47 C47     -1.4239  -4.2187  -9.9377   C.ar      1 RES1   0.0000
    48 N48     -2.0171  -3.0474 -10.2104   N.ar      1 RES1   0.0000
    49 C49     -1.4163  -3.5245  -7.5584   C.3       1 RES1   0.0000
    50 H50     -1.4069  -2.4994  -7.9601   H         1 RES1   0.0000
    51 C51     -0.3955  -3.6145  -6.4411   C.ar      1 RES1   0.0000
    52 C52     -2.8169  -3.8302  -7.0406   C.3       1 RES1   0.0000
    53 H53     -3.0936  -3.1411  -6.2454   H         1 RES1   0.0000
    54 H54     -3.5526  -3.7412  -7.8372   H         1 RES1   0.0000
    55 H55     -2.8676  -4.8422  -6.6444   H         1 RES1   0.0000
    56 C56      1.4689  -3.7838  -4.3782   C.ar      1 RES1   0.0000
    57 H57      2.1952  -3.8504  -3.5750   H         1 RES1   0.0000
    58 C58     -0.7889  -3.9528  -5.1543   C.ar      1 RES1   0.0000
    59 H59     -1.8353  -4.1533  -4.9492   H         1 RES1   0.0000
    60 C60      0.9486  -3.3598  -6.6766   C.ar      1 RES1   0.0000
    61 H61      1.2797  -3.0917  -7.6744   H         1 RES1   0.0000
    62 C62      1.8742  -3.4447  -5.6503   C.ar      1 RES1   0.0000
    63 H63      2.9216  -3.2435  -5.8492   H         1 RES1   0.0000
    64 C64      0.1381  -4.0379  -4.1295   C.ar      1 RES1   0.0000
    65 H65     -0.1846  -4.3054  -3.1289   H         1 RES1   0.0000
@<TRIPOS>BOND
     1     1     5   ar
     2     1     6   ar
     3     1     2    1
     4     3     8   ar
     5     3     9   ar
     6     3     4    1
     7     5     9   ar
     8     5    11    1
     9     6     8   ar
    10     6     7    1
    11     8    12    1
    12     9    10    1
    13    11    20    2
    14    11    23    1
    15    13    14    1
    16    13    23   am
    17    13    24    1
    18    14    31    1
    19    14    34    1
    20    14    15    1
    21    16    24    1
    22    16    17    1
    23    16    18    1
    24    16    19    1
    25    20    21    1
    26    20    24    1
    27    21    40   ar
    28    21    45   ar
    29    22    23    2
    30    25    34    1
    31    25    37    1
    32    25    26    1
    33    25    27    1
    34    28    31    1
    35    28    37    1
    36    28    29    1
    37    28    30    1
    38    31    32    1
    39    31    33    1
    40    34    35    1
    41    34    36    1
    42    37    38    1
    43    37    39    1
    44    40    47   ar
    45    41    45   ar
    46    41    48   ar
    47    41    42    1
    48    43    47    1
    49    43    49    1
    50    43    44    1
    51    45    46    1
    52    47    48   ar
    53    49    51    1
    54    49    52    1
    55    49    50    1
    56    51    58   ar
    57    51    60   ar
    58    52    53    1
    59    52    54    1
    60    52    55    1
    61    56    62   ar
    62    56    64   ar
    63    56    57    1
    64    58    64   ar
    65    58    59    1
    66    60    62   ar
    67    60    61    1
    68    62    63    1
    69    64    65    1
@<TRIPOS>SUBSTRUCTURE
     1 RES1        1 GROUP             0 ****  ****    0  
@<TRIPOS>MOLECULE
LIGAND_00197
    65    69     1     0     0
SMALL
USER_CHARGES
****
Generated from the CSD

@<TRIPOS>ATOM
     1 C1      -0.3089  -3.4844 -14.8706   C.ar      1 RES1   0.0000
     2 H2      -1.3904  -3.4811 -14.7880   H         1 RES1   0.0000
     3 C3       2.4474  -3.4548 -15.0541   C.ar      1 RES1   0.0000
     4 H4       3.5301  -3.4331 -15.1211   H         1 RES1   0.0000
     5 C5       0.3945  -4.6544 -14.6003   C.ar      1 RES1   0.0000
     6 C6       0.3436  -2.3208 -15.2378   C.ar      1 RES1   0.0000
     7 H7      -0.2140  -1.4161 -15.4559   H         1 RES1   0.0000
     8 C8       1.7076  -2.3373 -15.3172   C.ar      1 RES1   0.0000
     9 C9       1.7823  -4.6147 -14.7015   C.ar      1 RES1   0.0000
    10 H10      2.3603  -5.5104 -14.5045   H         1 RES1   0.0000
    11 C11     -0.2981  -5.9215 -14.1979   C.2       1 RES1   0.0000
    12 F12      2.3564  -1.1950 -15.6724   F         1 RES1   0.0000
    13 N13     -1.2096  -7.9620 -14.1230   N.am      1 RES1   0.0000
    14 C14     -1.4266  -9.4435 -14.2439   C.3       1 RES1   0.0000
    15 H15     -0.8849  -9.7939 -15.1212   H         1 RES1   0.0000
    16 C16     -2.8734  -7.5626 -12.3685   C.3       1 RES1   0.0000
    17 H17     -3.1098  -6.8493 -11.5816   H         1 RES1   0.0000
    18 H18     -3.6533  -7.5030 -13.1249   H         1 RES1   0.0000
    19 H19     -2.8934  -8.5617 -11.9384   H         1 RES1   0.0000
    20 C20     -1.0688  -6.0097 -13.0848   C.2       1 RES1   0.0000
    21 C21     -1.4087  -4.9383 -12.1137   C.ar      1 RES1   0.0000
    22 O22      0.2151  -7.5855 -15.8980   O.2       1 RES1   0.0000
    23 C23     -0.3475  -7.1868 -14.8867   C.2       1 RES1   0.0000
    24 N24     -1.5617  -7.2766 -12.9507   N.3       1 RES1   0.0000
    25 C25     -1.0572 -11.6724 -13.1383   C.3       1 RES1   0.0000
    26 H26     -0.6911 -12.1560 -12.2338   H         1 RES1   0.0000
    27 H27     -0.4996 -12.0410 -13.9981   H         1 RES1   0.0000
    28 C28     -3.0891 -11.3070 -14.5130   C.3       1 RES1   0.0000
    29 H29     -2.5924 -11.6769 -15.4088   H         1 RES1   0.0000
    30 H30     -4.1533 -11.5310 -14.5693   H         1 RES1   0.0000
    31 C31     -2.9001  -9.8002 -14.4234   C.3       1 RES1   0.0000
    32 H32     -3.2690  -9.3400 -15.3388   H         1 RES1   0.0000
    33 H33     -3.4647  -9.4204 -13.5731   H         1 RES1   0.0000
    34 C34     -0.8680 -10.1701 -13.0198   C.3       1 RES1   0.0000
    35 H35     -1.3859  -9.8161 -12.1297   H         1 RES1   0.0000
    36 H36      0.1953  -9.9520 -12.9320   H         1 RES1   0.0000
    37 N37     -2.5087 -11.9840 -13.3162   N.4       1 RES1   1.0000
    38 H38     -3.0125 -11.6764 -12.4904   H         1 RES1   0.0000
    39 H39     -2.6166 -12.9875 -13.4241   H         1 RES1   0.0000
    40 N40     -2.7044  -4.6015 -12.0170   N.ar      1 RES1   0.0000
    41 C41     -0.8828  -3.3107 -10.4916   C.ar      1 RES1   0.0000
    42 H42     -0.1470  -2.8011  -9.8782   H         1 RES1   0.0000
    43 N43     -4.3133  -3.2636 -11.0790   N.pl3     1 RES1   0.0000
    44 H44     -4.5722  -2.5511 -10.3967   H         1 RES1   0.0000
    45 C45     -0.4438  -4.3003 -11.3480   C.ar      1 RES1   0.0000
    46 H46      0.6060  -4.5644 -11.4202   H         1 RES1   0.0000
    47 C47     -3.0204  -3.6162 -11.1612   C.ar      1 RES1   0.0000
    48 N48     -2.1657  -2.9439 -10.3765   N.ar      1 RES1   0.0000
    49 C49     -5.3829  -3.8818 -11.8622   C.3       1 RES1   0.0000
    50 H50     -4.9568  -4.2588 -12.8049   H         1 RES1   0.0000
    51 C51     -6.4959  -2.9065 -12.1915   C.ar      1 RES1   0.0000
    52 C52     -5.9163  -5.0652 -11.0631   C.3       1 RES1   0.0000
    53 H53     -6.6964  -5.5843 -11.6159   H         1 RES1   0.0000
    54 H54     -5.1222  -5.7773 -10.8484   H         1 RES1   0.0000
    55 H55     -6.3369  -4.7314 -10.1169   H         1 RES1   0.0000
    56 C56     -8.5510  -1.1233 -12.7889   C.ar      1 RES1   0.0000
    57 H57     -9.3512  -0.4283 -13.0211   H         1 RES1   0.0000
    58 C58     -7.7927  -3.1475 -11.7612   C.ar      1 RES1   0.0000
    59 H59     -8.0088  -4.0415 -11.1856   H         1 RES1   0.0000
    60 C60     -6.2463  -1.7572 -12.9289   C.ar      1 RES1   0.0000
    61 H61     -5.2404  -1.5484 -13.2778   H         1 RES1   0.0000
    62 C62     -7.2688  -0.8716 -13.2248   C.ar      1 RES1   0.0000
    63 H63     -7.0588   0.0230 -13.8016   H         1 RES1   0.0000
    64 C64     -8.8137  -2.2605 -12.0573   C.ar      1 RES1   0.0000
    65 H65     -9.8224  -2.4618 -11.7123   H         1 RES1   0.0000
@<TRIPOS>BOND
     1     1     5   ar
     2     1     6   ar
     3     1     2    1
     4     3     8   ar
     5     3     9   ar
     6     3     4    1
     7     5     9   ar
     8     5    11    1
     9     6     8   ar
    10     6     7    1
    11     8    12    1
    12     9    10    1
    13    11    20    2
    14    11    23    1
    15    13    14    1
    16    13    23   am
    17    13    24    1
    18    14    31    1
    19    14    34    1
    20    14    15    1
    21    16    24    1
    22    16    17    1
    23    16    18    1
    24    16    19    1
    25    20    21    1
    26    20    24    1
    27    21    40   ar
    28    21    45   ar
    29    22    23    2
    30    25    34    1
    31    25    37    1
    32    25    26    1
    33    25    27    1
    34    28    31    1
    35    28    37    1
    36    28    29    1
    37    28    30    1
    38    31    32    1
    39    31    33    1
    40    34    35    1
    41    34    36    1
    42    37    38    1
    43    37    39    1
    44    40    47   ar
    45    41    45   ar
    46    41    48   ar
    47    41    42    1
    48    43    47    1
    49    43    49    1
    50    43    44    1
    51    45    46    1
    52    47    48   ar
    53    49    51    1
    54    49    52    1
    55    49    50    1
    56    51    58   ar
    57    51    60   ar
    58    52    53    1
    59    52    54    1
    60    52    55    1
    61    56    62   ar
    62    56    64   ar
    63    56    57    1
    64    58    64   ar
    65    58    59    1
    66    60    62   ar
    67    60    61    1
    68    62    63    1
    69    64    65    1
@<TRIPOS>SUBSTRUCTURE
     1 RES1        1 GROUP             0 ****  ****    0  
@<TRIPOS>MOLECULE
LIGAND_00198
    65    69     1     0     0
SMALL
USER_CHARGES
****
Generated from the CSD

@<TRIPOS>ATOM
     1 C1       0.1312  -3.5487 -14.7744   C.ar      1 RES1   0.0000
     2 H2      -0.9438  -3.4593 -14.8882   H         1 RES1   0.0000
     3 C3       2.8690  -3.7382 -14.4578   C.ar      1 RES1   0.0000
     4 H4       3.9443  -3.8025 -14.3284   H         1 RES1   0.0000
     5 C5       0.6785  -4.7655 -14.3784   C.ar      1 RES1   0.0000
     6 C6       0.9301  -2.4463 -15.0210   C.ar      1 RES1   0.0000
     7 H7       0.4950  -1.5046 -15.3386   H         1 RES1   0.0000
     8 C8       2.2804  -2.5709 -14.8531   C.ar      1 RES1   0.0000
     9 C9       2.0606  -4.8363 -14.2277   C.ar      1 RES1   0.0000
    10 H10      2.5201  -5.7710 -13.9272   H         1 RES1   0.0000
    11 C11     -0.1744  -5.9673 -14.1040   C.2       1 RES1   0.0000
    12 F12      3.0718  -1.4892 -15.0885   F         1 RES1   0.0000
    13 N13     -1.2825  -7.9066 -14.2097   N.am      1 RES1   0.0000
    14 C14     -1.6277  -9.3544 -14.4125   C.3       1 RES1   0.0000
    15 H15     -1.0325  -9.7305 -15.2433   H         1 RES1   0.0000
    16 C16     -3.0841  -7.3926 -12.6298   C.3       1 RES1   0.0000
    17 H17     -3.3439  -6.6648 -11.8638   H         1 RES1   0.0000
    18 H18     -3.7643  -7.2588 -13.4684   H         1 RES1   0.0000
    19 H19     -3.2423  -8.3880 -12.2200   H         1 RES1   0.0000
    20 C20     -1.0688  -6.0097 -13.0848   C.2       1 RES1   0.0000
    21 C21     -1.4087  -4.9383 -12.1137   C.ar      1 RES1   0.0000
    22 O22      0.3603  -7.6242 -15.8045   O.2       1 RES1   0.0000
    23 C23     -0.2697  -7.2004 -14.8444   C.2       1 RES1   0.0000
    24 N24     -1.6944  -7.2237 -13.0555   N.3       1 RES1   0.0000
    25 C25     -1.5948 -11.6419 -13.3669   C.3       1 RES1   0.0000
    26 H26     -1.3751 -12.1872 -12.4502   H         1 RES1   0.0000
    27 H27     -0.9875 -12.0382 -14.1794   H         1 RES1   0.0000
    28 C28     -3.4247 -11.0325 -14.9264   C.3       1 RES1   0.0000
    29 H29     -2.8740 -11.4228 -15.7810   H         1 RES1   0.0000
    30 H30     -4.4936 -11.1466 -15.1006   H         1 RES1   0.0000
    31 C31     -3.1014  -9.5557 -14.7565   C.3       1 RES1   0.0000
    32 H32     -3.3250  -9.0330 -15.6853   H         1 RES1   0.0000
    33 H33     -3.7135  -9.1473 -13.9537   H         1 RES1   0.0000
    34 C34     -1.2748 -10.1705 -13.1684   C.3       1 RES1   0.0000
    35 H35     -1.8475  -9.7936 -12.3223   H         1 RES1   0.0000
    36 H36     -0.2107 -10.0630 -12.9633   H         1 RES1   0.0000
    37 N37     -3.0426 -11.8006 -13.7051   N.4       1 RES1   1.0000
    38 H38     -3.5989 -11.4693 -12.9234   H         1 RES1   0.0000
    39 H39     -3.2349 -12.7844 -13.8644   H         1 RES1   0.0000
    40 N40     -1.0980  -5.1692 -10.8285   N.ar      1 RES1   0.0000
    41 C41     -2.3055  -2.8456 -11.5027   C.ar      1 RES1   0.0000
    42 H42     -2.7847  -1.9129 -11.7813   H         1 RES1   0.0000
    43 N43     -1.1330  -4.4573  -8.6489   N.pl3     1 RES1   0.0000
    44 H44     -0.7298  -5.3631  -8.4095   H         1 RES1   0.0000
    45 C45     -2.0280  -3.7587 -12.5000   C.ar      1 RES1   0.0000
    46 H46     -2.2846  -3.5636 -13.5360   H         1 RES1   0.0000
    47 C47     -1.4239  -4.2187  -9.9377   C.ar      1 RES1   0.0000
    48 N48     -2.0171  -3.0474 -10.2104   N.ar      1 RES1   0.0000
    49 C49     -1.4163  -3.5245  -7.5584   C.3       1 RES1   0.0000
    50 H50     -1.4069  -2.4994  -7.9601   H         1 RES1   0.0000
    51 C51     -0.3955  -3.6145  -6.4411   C.ar      1 RES1   0.0000
    52 C52     -2.8169  -3.8301  -7.0407   C.3       1 RES1   0.0000
    53 H53     -3.0936  -3.1411  -6.2454   H         1 RES1   0.0000
    54 H54     -3.5526  -3.7411  -7.8373   H         1 RES1   0.0000
    55 H55     -2.8677  -4.8421  -6.6444   H         1 RES1   0.0000
    56 C56      1.4689  -3.7838  -4.3781   C.ar      1 RES1   0.0000
    57 H57      2.1952  -3.8504  -3.5749   H         1 RES1   0.0000
    58 C58     -0.7890  -3.9528  -5.1543   C.ar      1 RES1   0.0000
    59 H59     -1.8354  -4.1533  -4.9493   H         1 RES1   0.0000
    60 C60      0.9486  -3.3598  -6.6766   C.ar      1 RES1   0.0000
    61 H61      1.2797  -3.0917  -7.6744   H         1 RES1   0.0000
    62 C62      1.8742  -3.4447  -5.6503   C.ar      1 RES1   0.0000
    63 H63      2.9216  -3.2436  -5.8492   H         1 RES1   0.0000
    64 C64      0.1380  -4.0380  -4.1295   C.ar      1 RES1   0.0000
    65 H65     -0.1847  -4.3054  -3.1289   H         1 RES1   0.0000
@<TRIPOS>BOND
     1     1     5   ar
     2     1     6   ar
     3     1     2    1
     4     3     8   ar
     5     3     9   ar
     6     3     4    1
     7     5     9   ar
     8     5    11    1
     9     6     8   ar
    10     6     7    1
    11     8    12    1
    12     9    10    1
    13    11    20    2
    14    11    23    1
    15    13    14    1
    16    13    23   am
    17    13    24    1
    18    14    31    1
    19    14    34    1
    20    14    15    1
    21    16    24    1
    22    16    17    1
    23    16    18    1
    24    16    19    1
    25    20    21    1
    26    20    24    1
    27    21    40   ar
    28    21    45   ar
    29    22    23    2
    30    25    34    1
    31    25    37    1
    32    25    26    1
    33    25    27    1
    34    28    31    1
    35    28    37    1
    36    28    29    1
    37    28    30    1
    38    31    32    1
    39    31    33    1
    40    34    35    1
    41    34    36    1
    42    37    38    1
    43    37    39    1
    44    40    47   ar
    45    41    45   ar
    46    41    48   ar
    47    41    42    1
    48    43    47    1
    49    43    49    1
    50    43    44    1
    51    45    46    1
    52    47    48   ar
    53    49    51    1
    54    49    52    1
    55    49    50    1
    56    51    58   ar
    57    51    60   ar
    58    52    53    1
    59    52    54    1
    60    52    55    1
    61    56    62   ar
    62    56    64   ar
    63    56    57    1
    64    58    64   ar
    65    58    59    1
    66    60    62   ar
    67    60    61    1
    68    62    63    1
    69    64    65    1
@<TRIPOS>SUBSTRUCTURE
     1 RES1        1 GROUP             0 ****  ****    0  
@<TRIPOS>MOLECULE
LIGAND_00199
    65    69     1     0     0
SMALL
USER_CHARGES
****
Generated from the CSD

@<TRIPOS>ATOM
     1 C1       0.1312  -3.5487 -14.7744   C.ar      1 RES1   0.0000
     2 H2      -0.9438  -3.4593 -14.8882   H         1 RES1   0.0000
     3 C3       2.8690  -3.7382 -14.4578   C.ar      1 RES1   0.0000
     4 H4       3.9443  -3.8025 -14.3284   H         1 RES1   0.0000
     5 C5       0.6785  -4.7655 -14.3784   C.ar      1 RES1   0.0000
     6 C6       0.9301  -2.4463 -15.0210   C.ar      1 RES1   0.0000
     7 H7       0.4950  -1.5046 -15.3386   H         1 RES1   0.0000
     8 C8       2.2804  -2.5709 -14.8531   C.ar      1 RES1   0.0000
     9 C9       2.0606  -4.8363 -14.2277   C.ar      1 RES1   0.0000
    10 H10      2.5201  -5.7710 -13.9272   H         1 RES1   0.0000
    11 C11     -0.1744  -5.9673 -14.1040   C.2       1 RES1   0.0000
    12 F12      3.0718  -1.4892 -15.0885   F         1 RES1   0.0000
    13 N13     -1.2825  -7.9066 -14.2097   N.am      1 RES1   0.0000
    14 C14     -1.6277  -9.3544 -14.4125   C.3       1 RES1   0.0000
    15 H15     -1.0325  -9.7305 -15.2433   H         1 RES1   0.0000
    16 C16     -3.0841  -7.3926 -12.6298   C.3       1 RES1   0.0000
    17 H17     -3.3439  -6.6648 -11.8638   H         1 RES1   0.0000
    18 H18     -3.7643  -7.2588 -13.4684   H         1 RES1   0.0000
    19 H19     -3.2423  -8.3880 -12.2200   H         1 RES1   0.0000
    20 C20     -1.0688  -6.0097 -13.0848   C.2       1 RES1   0.0000
    21 C21     -1.4087  -4.9383 -12.1137   C.ar      1 RES1   0.0000
    22 O22      0.3603  -7.6242 -15.8045   O.2       1 RES1   0.0000
    23 C23     -0.2697  -7.2004 -14.8444   C.2       1 RES1   0.0000
    24 N24     -1.6944  -7.2237 -13.0555   N.3       1 RES1   0.0000
    25 C25     -1.5948 -11.6419 -13.3669   C.3       1 RES1   0.0000
    26 H26     -1.3751 -12.1872 -12.4502   H         1 RES1   0.0000
    27 H27     -0.9875 -12.0382 -14.1794   H         1 RES1   0.0000
    28 C28     -3.4247 -11.0325 -14.9264   C.3       1 RES1   0.0000
    29 H29     -2.8740 -11.4228 -15.7810   H         1 RES1   0.0000
    30 H30     -4.4936 -11.1466 -15.1006   H         1 RES1   0.0000
    31 C31     -3.1014  -9.5557 -14.7565   C.3       1 RES1   0.0000
    32 H32     -3.3250  -9.0330 -15.6853   H         1 RES1   0.0000
    33 H33     -3.7135  -9.1473 -13.9537   H         1 RES1   0.0000
    34 C34     -1.2748 -10.1705 -13.1684   C.3       1 RES1   0.0000
    35 H35     -1.8475  -9.7936 -12.3223   H         1 RES1   0.0000
    36 H36     -0.2107 -10.0630 -12.9633   H         1 RES1   0.0000
    37 N37     -3.0426 -11.8006 -13.7051   N.4       1 RES1   1.0000
    38 H38     -3.5989 -11.4693 -12.9234   H         1 RES1   0.0000
    39 H39     -3.2349 -12.7844 -13.8644   H         1 RES1   0.0000
    40 N40     -1.0980  -5.1692 -10.8285   N.ar      1 RES1   0.0000
    41 C41     -2.3055  -2.8456 -11.5027   C.ar      1 RES1   0.0000
    42 H42     -2.7847  -1.9129 -11.7813   H         1 RES1   0.0000
    43 N43     -1.1330  -4.4573  -8.6489   N.pl3     1 RES1   0.0000
    44 H44     -1.3306  -3.7222  -7.9700   H         1 RES1   0.0000
    45 C45     -2.0280  -3.7587 -12.5000   C.ar      1 RES1   0.0000
    46 H46     -2.2846  -3.5636 -13.5360   H         1 RES1   0.0000
    47 C47     -1.4239  -4.2187  -9.9377   C.ar      1 RES1   0.0000
    48 N48     -2.0171  -3.0474 -10.2104   N.ar      1 RES1   0.0000
    49 C49     -0.4926  -5.6806  -8.1661   C.3       1 RES1   0.0000
    50 H50     -0.7428  -6.5041  -8.8528   H         1 RES1   0.0000
    51 C51     -0.9491  -6.0600  -6.7710   C.ar      1 RES1   0.0000
    52 C52      1.0149  -5.4588  -8.2030   C.3       1 RES1   0.0000
    53 H53      1.5448  -6.3535  -7.8829   H         1 RES1   0.0000
    54 H54      1.3456  -5.2110  -9.2095   H         1 RES1   0.0000
    55 H55      1.2994  -4.6424  -7.5424   H         1 RES1   0.0000
    56 C56     -1.7731  -6.7558  -4.2025   C.ar      1 RES1   0.0000
    57 H57     -2.0942  -7.0261  -3.2021   H         1 RES1   0.0000
    58 C58     -0.0341  -6.1511  -5.7320   C.ar      1 RES1   0.0000
    59 H59      1.0148  -5.9494  -5.9224   H         1 RES1   0.0000
    60 C60     -2.2846  -6.3259  -6.5018   C.ar      1 RES1   0.0000
    61 H61     -3.0181  -6.2628  -7.2987   H         1 RES1   0.0000
    62 C62     -2.6928  -6.6714  -5.2246   C.ar      1 RES1   0.0000
    63 H63     -3.7401  -6.8759  -5.0288   H         1 RES1   0.0000
    64 C64     -0.4441  -6.4959  -4.4553   C.ar      1 RES1   0.0000
    65 H65      0.2829  -6.5613  -3.6527   H         1 RES1   0.0000
@<TRIPOS>BOND
     1     1     5   ar
     2     1     6   ar
     3     1     2    1
     4     3     8   ar
     5     3     9   ar
     6     3     4    1
     7     5     9   ar
     8     5    11    1
     9     6     8   ar
    10     6     7    1
    11     8    12    1
    12     9    10    1
    13    11    20    2
    14    11    23    1
    15    13    14    1
    16    13    23   am
    17    13    24    1
    18    14    31    1
    19    14    34    1
    20    14    15    1
    21    16    24    1
    22    16    17    1
    23    16    18    1
    24    16    19    1
    25    20    21    1
    26    20    24    1
    27    21    40   ar
    28    21    45   ar
    29    22    23    2
    30    25    34    1
    31    25    37    1
    32    25    26    1
    33    25    27    1
    34    28    31    1
    35    28    37    1
    36    28    29    1
    37    28    30    1
    38    31    32    1
    39    31    33    1
    40    34    35    1
    41    34    36    1
    42    37    38    1
    43    37    39    1
    44    40    47   ar
    45    41    45   ar
    46    41    48   ar
    47    41    42    1
    48    43    47    1
    49    43    49    1
    50    43    44    1
    51    45    46    1
    52    47    48   ar
    53    49    51    1
    54    49    52    1
    55    49    50    1
    56    51    58   ar
    57    51    60   ar
    58    52    53    1
    59    52    54    1
    60    52    55    1
    61    56    62   ar
    62    56    64   ar
    63    56    57    1
    64    58    64   ar
    65    58    59    1
    66    60    62   ar
    67    60    61    1
    68    62    63    1
    69    64    65    1
@<TRIPOS>SUBSTRUCTURE
     1 RES1        1 GROUP             0 ****  ****    0  
@<TRIPOS>MOLECULE
LIGAND_00200
    65    69     1     0     0
SMALL
USER_CHARGES
****
Generated from the CSD

@<TRIPOS>ATOM
     1 C1      -0.1332  -3.9647 -15.8327   C.ar      1 RES1   0.0000
     2 H2      -0.9315  -4.3889 -16.4321   H         1 RES1   0.0000
     3 C3       1.8777  -2.8434 -14.3060   C.ar      1 RES1   0.0000
     4 H4       2.6628  -2.3929 -13.7078   H         1 RES1   0.0000
     5 C5       0.2780  -4.6219 -14.6770   C.ar      1 RES1   0.0000
     6 C6       0.4518  -2.7759 -16.2316   C.ar      1 RES1   0.0000
     7 H7       0.1310  -2.2758 -17.1393   H         1 RES1   0.0000
     8 C8       1.4421  -2.2452 -15.4538   C.ar      1 RES1   0.0000
     9 C9       1.2941  -4.0380 -13.9257   C.ar      1 RES1   0.0000
    10 H10      1.6431  -4.5274 -13.0235   H         1 RES1   0.0000
    11 C11     -0.3487  -5.9083 -14.2301   C.2       1 RES1   0.0000
    12 F12      2.0182  -1.0734 -15.8371   F         1 RES1   0.0000
    13 N13     -1.1781  -7.9802 -14.0919   N.am      1 RES1   0.0000
    14 C14     -1.3436  -9.4704 -14.1852   C.3       1 RES1   0.0000
    15 H15     -0.8273  -9.8122 -15.0810   H         1 RES1   0.0000
    16 C16     -2.7819  -7.6189 -12.2744   C.3       1 RES1   0.0000
    17 H17     -3.0178  -6.8977 -11.4946   H         1 RES1   0.0000
    18 H18     -3.5925  -7.6098 -13.0002   H         1 RES1   0.0000
    19 H19     -2.7425  -8.6075 -11.8220   H         1 RES1   0.0000
    20 C20     -1.0688  -6.0097 -13.0848   C.2       1 RES1   0.0000
    21 C21     -1.4087  -4.9383 -12.1137   C.ar      1 RES1   0.0000
    22 O22      0.1566  -7.5755 -15.9295   O.2       1 RES1   0.0000
    23 C23     -0.3785  -7.1840 -14.9005   C.2       1 RES1   0.0000
    24 N24     -1.5073  -7.2922 -12.9145   N.3       1 RES1   0.0000
    25 C25     -0.8419 -11.6684 -13.0699   C.3       1 RES1   0.0000
    26 H26     -0.4189 -12.1254 -12.1765   H         1 RES1   0.0000
    27 H27     -0.3084 -12.0276 -13.9487   H         1 RES1   0.0000
    28 C28     -2.9439 -11.3985 -14.3587   C.3       1 RES1   0.0000
    29 H29     -2.4726 -11.7618 -15.2708   H         1 RES1   0.0000
    30 H30     -4.0002 -11.6631 -14.3657   H         1 RES1   0.0000
    31 C31     -2.8088  -9.8846 -14.2958   C.3       1 RES1   0.0000
    32 H32     -3.2342  -9.4512 -15.1997   H         1 RES1   0.0000
    33 H33     -3.3501  -9.5146 -13.4263   H         1 RES1   0.0000
    34 C34     -0.7052 -10.1586 -12.9780   C.3       1 RES1   0.0000
    35 H35     -1.1973  -9.8120 -12.0704   H         1 RES1   0.0000
    36 H36      0.3518  -9.8994 -12.9394   H         1 RES1   0.0000
    37 N37     -2.2869 -12.0367 -13.1803   N.4       1 RES1   1.0000
    38 H38     -2.7658 -11.7369 -12.3371   H         1 RES1   0.0000
    39 H39     -2.3610 -13.0449 -13.2712   H         1 RES1   0.0000
    40 N40     -2.7044  -4.6015 -12.0170   N.ar      1 RES1   0.0000
    41 C41     -0.8828  -3.3107 -10.4916   C.ar      1 RES1   0.0000
    42 H42     -0.1470  -2.8011  -9.8782   H         1 RES1   0.0000
    43 N43     -4.3133  -3.2636 -11.0790   N.pl3     1 RES1   0.0000
    44 H44     -4.5722  -2.5511 -10.3967   H         1 RES1   0.0000
    45 C45     -0.4438  -4.3003 -11.3480   C.ar      1 RES1   0.0000
    46 H46      0.6060  -4.5644 -11.4202   H         1 RES1   0.0000
    47 C47     -3.0204  -3.6162 -11.1612   C.ar      1 RES1   0.0000
    48 N48     -2.1657  -2.9439 -10.3765   N.ar      1 RES1   0.0000
    49 C49     -5.3829  -3.8818 -11.8622   C.3       1 RES1   0.0000
    50 H50     -4.9568  -4.2588 -12.8049   H         1 RES1   0.0000
    51 C51     -6.4959  -2.9065 -12.1915   C.ar      1 RES1   0.0000
    52 C52     -5.9163  -5.0652 -11.0631   C.3       1 RES1   0.0000
    53 H53     -6.6964  -5.5843 -11.6159   H         1 RES1   0.0000
    54 H54     -5.1222  -5.7773 -10.8484   H         1 RES1   0.0000
    55 H55     -6.3369  -4.7314 -10.1169   H         1 RES1   0.0000
    56 C56     -8.5510  -1.1233 -12.7890   C.ar      1 RES1   0.0000
    57 H57     -9.3512  -0.4283 -13.0211   H         1 RES1   0.0000
    58 C58     -7.7927  -3.1475 -11.7612   C.ar      1 RES1   0.0000
    59 H59     -8.0088  -4.0415 -11.1856   H         1 RES1   0.0000
    60 C60     -6.2463  -1.7572 -12.9290   C.ar      1 RES1   0.0000
    61 H61     -5.2404  -1.5484 -13.2778   H         1 RES1   0.0000
    62 C62     -7.2687  -0.8716 -13.2249   C.ar      1 RES1   0.0000
    63 H63     -7.0587   0.0230 -13.8016   H         1 RES1   0.0000
    64 C64     -8.8137  -2.2605 -12.0574   C.ar      1 RES1   0.0000
    65 H65     -9.8224  -2.4618 -11.7124   H         1 RES1   0.0000
@<TRIPOS>BOND
     1     1     5   ar
     2     1     6   ar
     3     1     2    1
     4     3     8   ar
     5     3     9   ar
     6     3     4    1
     7     5     9   ar
     8     5    11    1
     9     6     8   ar
    10     6     7    1
    11     8    12    1
    12     9    10    1
    13    11    20    2
    14    11    23    1
    15    13    14    1
    16    13    23   am
    17    13    24    1
    18    14    31    1
    19    14    34    1
    20    14    15    1
    21    16    24    1
    22    16    17    1
    23    16    18    1
    24    16    19    1
    25    20    21    1
    26    20    24    1
    27    21    40   ar
    28    21    45   ar
    29    22    23    2
    30    25    34    1
    31    25    37    1
    32    25    26    1
    33    25    27    1
    34    28    31    1
    35    28    37    1
    36    28    29    1
    37    28    30    1
    38    31    32    1
    39    31    33    1
    40    34    35    1
    41    34    36    1
    42    37    38    1
    43    37    39    1
    44    40    47   ar
    45    41    45   ar
    46    41    48   ar
    47    41    42    1
    48    43    47    1
    49    43    49    1
    50    43    44    1
    51    45    46    1
    52    47    48   ar
    53    49    51    1
    54    49    52    1
    55    49    50    1
    56    51    58   ar
    57    51    60   ar
    58    52    53    1
    59    52    54    1
    60    52    55    1
    61    56    62   ar
    62    56    64   ar
    63    56    57    1
    64    58    64   ar
    65    58    59    1
    66    60    62   ar
    67    60    61    1
    68    62    63    1
    69    64    65    1
@<TRIPOS>SUBSTRUCTURE
     1 RES1        1 GROUP             0 ****  ****    0  
@<TRIPOS>MOLECULE
LIGAND_00201
    65    69     1     0     0
SMALL
USER_CHARGES
****
Generated from the CSD

@<TRIPOS>ATOM
     1 C1       1.3274  -5.6064 -11.3097   C.ar      1 RES1   0.0000
     2 H2       1.6104  -6.6510 -11.2383   H         1 RES1   0.0000
     3 C3       0.6515  -2.9339 -11.4911   C.ar      1 RES1   0.0000
     4 H4       0.3968  -1.8816 -11.5607   H         1 RES1   0.0000
     5 C5       0.4307  -5.2062 -12.2959   C.ar      1 RES1   0.0000
     6 C6       1.8714  -4.6973 -10.4196   C.ar      1 RES1   0.0000
     7 H7       2.5622  -5.0203  -9.6480   H         1 RES1   0.0000
     8 C8       1.5195  -3.3821 -10.5367   C.ar      1 RES1   0.0000
     9 C9       0.1044  -3.8548 -12.3658   C.ar      1 RES1   0.0000
    10 H10     -0.5963  -3.5104 -13.1178   H         1 RES1   0.0000
    11 C11     -0.1639  -6.1788 -13.2694   C.2       1 RES1   0.0000
    12 F12      2.0549  -2.4816  -9.6682   F         1 RES1   0.0000
    13 N13     -1.2310  -7.9476 -14.1577   N.am      1 RES1   0.0000
    14 C14     -1.4881  -9.4204 -14.3034   C.3       1 RES1   0.0000
    15 H15     -1.1817  -9.7194 -15.3047   H         1 RES1   0.0000
    16 C16     -1.3620  -7.1491 -16.4350   C.3       1 RES1   0.0000
    17 H17     -0.7044  -7.1196 -17.3013   H         1 RES1   0.0000
    18 H18     -2.0257  -8.0045 -16.5429   H         1 RES1   0.0000
    19 H19     -1.9688  -6.2461 -16.4382   H         1 RES1   0.0000
    20 C20     -0.0279  -6.1202 -14.6126   C.2       1 RES1   0.0000
    21 C21      0.6269  -5.0726 -15.4374   C.ar      1 RES1   0.0000
    22 O22     -1.2045  -7.8526 -11.8620   O.2       1 RES1   0.0000
    23 C23     -0.9170  -7.3585 -12.9443   C.2       1 RES1   0.0000
    24 N24     -0.5861  -7.2460 -15.1981   N.3       1 RES1   0.0000
    25 C25     -0.8851 -11.7073 -13.4472   C.3       1 RES1   0.0000
    26 H26     -0.3144 -12.2403 -12.6881   H         1 RES1   0.0000
    27 H27     -0.5592 -12.0254 -14.4364   H         1 RES1   0.0000
    28 C28     -3.1873 -11.2696 -14.2597   C.3       1 RES1   0.0000
    29 H29     -2.9293 -11.5871 -15.2689   H         1 RES1   0.0000
    30 H30     -4.2355 -11.4926 -14.0659   H         1 RES1   0.0000
    31 C31     -2.9648  -9.7699 -14.1359   C.3       1 RES1   0.0000
    32 H32     -3.5411  -9.2595 -14.9062   H         1 RES1   0.0000
    33 H33     -3.2996  -9.4400 -13.1536   H         1 RES1   0.0000
    34 C34     -0.6553 -10.2136 -13.2957   C.3       1 RES1   0.0000
    35 H35     -0.9355  -9.9117 -12.2876   H         1 RES1   0.0000
    36 H36      0.3996  -9.9983 -13.4592   H         1 RES1   0.0000
    37 N37     -2.3395 -12.0118 -13.2809   N.4       1 RES1   1.0000
    38 H38     -2.6223 -11.7525 -12.3412   H         1 RES1   0.0000
    39 H39     -2.4821 -13.0078 -13.4144   H         1 RES1   0.0000
    40 N40     -0.1490  -4.4335 -16.3269   N.ar      1 RES1   0.0000
    41 C41      2.4700  -3.7855 -16.1469   C.ar      1 RES1   0.0000
    42 H42      3.5204  -3.5265 -16.0650   H         1 RES1   0.0000
    43 N43     -0.3324  -2.8774 -18.0012   N.pl3     1 RES1   0.0000
    44 H44     -1.3101  -3.1587 -18.0730   H         1 RES1   0.0000
    45 C45      1.9748  -4.7687 -15.3142   C.ar      1 RES1   0.0000
    46 H46      2.6104  -5.2808 -14.5994   H         1 RES1   0.0000
    47 C47      0.4377  -3.5025 -17.0963   C.ar      1 RES1   0.0000
    48 N48      1.7264  -3.1344 -17.0507   N.ar      1 RES1   0.0000
    49 C49      0.1580  -1.8626 -18.9336   C.3       1 RES1   0.0000
    50 H50      0.6381  -1.0568 -18.3570   H         1 RES1   0.0000
    51 C51     -0.9540  -1.2610 -19.7702   C.ar      1 RES1   0.0000
    52 C52      1.2103  -2.5189 -19.8197   C.3       1 RES1   0.0000
    53 H53      1.2598  -2.0275 -20.7891   H         1 RES1   0.0000
    54 H54      2.1947  -2.4613 -19.3600   H         1 RES1   0.0000
    55 H55      0.9741  -3.5682 -19.9838   H         1 RES1   0.0000
    56 C56     -3.0048  -0.1691 -21.3072   C.ar      1 RES1   0.0000
    57 H57     -3.8038   0.2566 -21.9052   H         1 RES1   0.0000
    58 C58     -2.0445  -2.0306 -20.1492   C.ar      1 RES1   0.0000
    59 H59     -2.0986  -3.0703 -19.8436   H         1 RES1   0.0000
    60 C60     -0.9071   0.0655 -20.1767   C.ar      1 RES1   0.0000
    61 H61     -0.0636   0.6864 -19.8940   H         1 RES1   0.0000
    62 C62     -1.9274   0.6070 -20.9403   C.ar      1 RES1   0.0000
    63 H63     -1.8776   1.6455 -21.2503   H         1 RES1   0.0000
    64 C64     -3.0640  -1.4873 -20.9121   C.ar      1 RES1   0.0000
    65 H65     -3.9112  -2.1014 -21.1992   H         1 RES1   0.0000
@<TRIPOS>BOND
     1     1     5   ar
     2     1     6   ar
     3     1     2    1
     4     3     8   ar
     5     3     9   ar
     6     3     4    1
     7     5     9   ar
     8     5    11    1
     9     6     8   ar
    10     6     7    1
    11     8    12    1
    12     9    10    1
    13    11    20    2
    14    11    23    1
    15    13    14    1
    16    13    23   am
    17    13    24    1
    18    14    31    1
    19    14    34    1
    20    14    15    1
    21    16    24    1
    22    16    17    1
    23    16    18    1
    24    16    19    1
    25    20    21    1
    26    20    24    1
    27    21    40   ar
    28    21    45   ar
    29    22    23    2
    30    25    34    1
    31    25    37    1
    32    25    26    1
    33    25    27    1
    34    28    31    1
    35    28    37    1
    36    28    29    1
    37    28    30    1
    38    31    32    1
    39    31    33    1
    40    34    35    1
    41    34    36    1
    42    37    38    1
    43    37    39    1
    44    40    47   ar
    45    41    45   ar
    46    41    48   ar
    47    41    42    1
    48    43    47    1
    49    43    49    1
    50    43    44    1
    51    45    46    1
    52    47    48   ar
    53    49    51    1
    54    49    52    1
    55    49    50    1
    56    51    58   ar
    57    51    60   ar
    58    52    53    1
    59    52    54    1
    60    52    55    1
    61    56    62   ar
    62    56    64   ar
    63    56    57    1
    64    58    64   ar
    65    58    59    1
    66    60    62   ar
    67    60    61    1
    68    62    63    1
    69    64    65    1
@<TRIPOS>SUBSTRUCTURE
     1 RES1        1 GROUP             0 ****  ****    0  
@<TRIPOS>MOLECULE
LIGAND_00202
    65    69     1     0     0
SMALL
USER_CHARGES
****
Generated from the CSD

@<TRIPOS>ATOM
     1 C1       1.8363  -5.0308 -12.2162   C.ar      1 RES1   0.0000
     2 H2       2.4918  -5.5879 -12.8768   H         1 RES1   0.0000
     3 C3       0.1881  -3.5725 -10.5463   C.ar      1 RES1   0.0000
     4 H4      -0.4529  -2.9906  -9.8924   H         1 RES1   0.0000
     5 C5       0.4604  -5.2241 -12.2950   C.ar      1 RES1   0.0000
     6 C6       2.3872  -4.1369 -11.3151   C.ar      1 RES1   0.0000
     7 H7       3.4617  -4.0002 -11.2544   H         1 RES1   0.0000
     8 C8       1.5456  -3.4286 -10.5045   C.ar      1 RES1   0.0000
     9 C9      -0.3489  -4.4790 -11.4419   C.ar      1 RES1   0.0000
    10 H10     -1.4245  -4.6103 -11.4724   H         1 RES1   0.0000
    11 C11     -0.1512  -6.1860 -13.2685   C.2       1 RES1   0.0000
    12 F12      2.0801  -2.5436  -9.6196   F         1 RES1   0.0000
    13 N13     -1.2406  -7.9410 -14.1570   N.am      1 RES1   0.0000
    14 C14     -1.5106  -9.4109 -14.3092   C.3       1 RES1   0.0000
    15 H15     -1.2166  -9.7060 -15.3154   H         1 RES1   0.0000
    16 C16     -1.3876  -7.1276 -16.4280   C.3       1 RES1   0.0000
    17 H17     -0.7384  -7.0978 -17.3006   H         1 RES1   0.0000
    18 H18     -2.0590  -7.9772 -16.5346   H         1 RES1   0.0000
    19 H19     -1.9875  -6.2200 -16.4198   H         1 RES1   0.0000
    20 C20     -0.0279  -6.1202 -14.6126   C.2       1 RES1   0.0000
    21 C21      0.6269  -5.0726 -15.4374   C.ar      1 RES1   0.0000
    22 O22     -1.1910  -7.8605 -11.8611   O.2       1 RES1   0.0000
    23 C23     -0.9103  -7.3619 -12.9432   C.2       1 RES1   0.0000
    24 N24     -0.6005  -7.2381 -15.1994   N.3       1 RES1   0.0000
    25 C25     -0.9165 -11.7077 -13.4732   C.3       1 RES1   0.0000
    26 H26     -0.3422 -12.2497 -12.7234   H         1 RES1   0.0000
    27 H27     -0.6031 -12.0221 -14.4677   H         1 RES1   0.0000
    28 C28     -3.2234 -11.2474 -14.2595   C.3       1 RES1   0.0000
    29 H29     -2.9781 -11.5605 -15.2732   H         1 RES1   0.0000
    30 H30     -4.2712 -11.4635 -14.0563   H         1 RES1   0.0000
    31 C31     -2.9881  -9.7501 -14.1288   C.3       1 RES1   0.0000
    32 H32     -3.5683  -9.2306 -14.8899   H         1 RES1   0.0000
    33 H33     -3.3103  -9.4239 -13.1410   H         1 RES1   0.0000
    34 C34     -0.6736 -10.2168 -13.3150   C.3       1 RES1   0.0000
    35 H35     -0.9412  -9.9190 -12.3022   H         1 RES1   0.0000
    36 H36      0.3812 -10.0085 -13.4879   H         1 RES1   0.0000
    37 N37     -2.3714 -12.0021 -13.2940   N.4       1 RES1   1.0000
    38 H38     -2.6426 -11.7465 -12.3499   H         1 RES1   0.0000
    39 H39     -2.5230 -12.9961 -13.4322   H         1 RES1   0.0000
    40 N40      1.6492  -5.4674 -16.2125   N.ar      1 RES1   0.0000
    41 C41      0.9175  -2.8643 -16.2094   C.ar      1 RES1   0.0000
    42 H42      0.6145  -1.8224 -16.2076   H         1 RES1   0.0000
    43 N43      3.3019  -4.9139 -17.7026   N.pl3     1 RES1   0.0000
    44 H44      3.5802  -5.8944 -17.6654   H         1 RES1   0.0000
    45 C45      0.2208  -3.7465 -15.4083   C.ar      1 RES1   0.0000
    46 H46     -0.6032  -3.4174 -14.7839   H         1 RES1   0.0000
    47 C47      2.2656  -4.5244 -16.9431   C.ar      1 RES1   0.0000
    48 N48      1.9469  -3.2225 -16.9876   N.ar      1 RES1   0.0000
    49 C49      4.0967  -4.0080 -18.5317   C.3       1 RES1   0.0000
    50 H50      3.4209  -3.4736 -19.2173   H         1 RES1   0.0000
    51 C51      5.1379  -4.7412 -19.3543   C.ar      1 RES1   0.0000
    52 C52      4.7533  -2.9904 -17.6061   C.3       1 RES1   0.0000
    53 H53      5.6839  -2.6233 -18.0339   H         1 RES1   0.0000
    54 H54      4.0976  -2.1383 -17.4396   H         1 RES1   0.0000
    55 H55      4.9783  -3.4385 -16.6405   H         1 RES1   0.0000
    56 C56      7.0527  -6.0989 -20.8545   C.ar      1 RES1   0.0000
    57 H57      7.7979  -6.6279 -21.4391   H         1 RES1   0.0000
    58 C58      5.7472  -5.8854 -18.8598   C.ar      1 RES1   0.0000
    59 H59      5.4748  -6.2554 -17.8768   H         1 RES1   0.0000
    60 C60      5.5063  -4.2868 -20.6132   C.ar      1 RES1   0.0000
    61 H61      5.0448  -3.3932 -21.0201   H         1 RES1   0.0000
    62 C62      6.4579  -4.9629 -21.3578   C.ar      1 RES1   0.0000
    63 H63      6.7354  -4.5965 -22.3406   H         1 RES1   0.0000
    64 C64      6.6980  -6.5605 -19.6061   C.ar      1 RES1   0.0000
    65 H65      7.1643  -7.4550 -19.2066   H         1 RES1   0.0000
@<TRIPOS>BOND
     1     1     5   ar
     2     1     6   ar
     3     1     2    1
     4     3     8   ar
     5     3     9   ar
     6     3     4    1
     7     5     9   ar
     8     5    11    1
     9     6     8   ar
    10     6     7    1
    11     8    12    1
    12     9    10    1
    13    11    20    2
    14    11    23    1
    15    13    14    1
    16    13    23   am
    17    13    24    1
    18    14    31    1
    19    14    34    1
    20    14    15    1
    21    16    24    1
    22    16    17    1
    23    16    18    1
    24    16    19    1
    25    20    21    1
    26    20    24    1
    27    21    40   ar
    28    21    45   ar
    29    22    23    2
    30    25    34    1
    31    25    37    1
    32    25    26    1
    33    25    27    1
    34    28    31    1
    35    28    37    1
    36    28    29    1
    37    28    30    1
    38    31    32    1
    39    31    33    1
    40    34    35    1
    41    34    36    1
    42    37    38    1
    43    37    39    1
    44    40    47   ar
    45    41    45   ar
    46    41    48   ar
    47    41    42    1
    48    43    47    1
    49    43    49    1
    50    43    44    1
    51    45    46    1
    52    47    48   ar
    53    49    51    1
    54    49    52    1
    55    49    50    1
    56    51    58   ar
    57    51    60   ar
    58    52    53    1
    59    52    54    1
    60    52    55    1
    61    56    62   ar
    62    56    64   ar
    63    56    57    1
    64    58    64   ar
    65    58    59    1
    66    60    62   ar
    67    60    61    1
    68    62    63    1
    69    64    65    1
@<TRIPOS>SUBSTRUCTURE
     1 RES1        1 GROUP             0 ****  ****    0  
@<TRIPOS>MOLECULE
LIGAND_00203
    65    69     1     0     0
SMALL
USER_CHARGES
****
Generated from the CSD

@<TRIPOS>ATOM
     1 C1       1.3274  -5.6064 -11.3097   C.ar      1 RES1   0.0000
     2 H2       1.6104  -6.6511 -11.2383   H         1 RES1   0.0000
     3 C3       0.6516  -2.9340 -11.4911   C.ar      1 RES1   0.0000
     4 H4       0.3969  -1.8816 -11.5607   H         1 RES1   0.0000
     5 C5       0.4307  -5.2063 -12.2959   C.ar      1 RES1   0.0000
     6 C6       1.8714  -4.6974 -10.4196   C.ar      1 RES1   0.0000
     7 H7       2.5623  -5.0204  -9.6481   H         1 RES1   0.0000
     8 C8       1.5196  -3.3822 -10.5367   C.ar      1 RES1   0.0000
     9 C9       0.1045  -3.8548 -12.3658   C.ar      1 RES1   0.0000
    10 H10     -0.5963  -3.5104 -13.1177   H         1 RES1   0.0000
    11 C11     -0.1639  -6.1788 -13.2694   C.2       1 RES1   0.0000
    12 F12      2.0550  -2.4816  -9.6682   F         1 RES1   0.0000
    13 N13     -1.2310  -7.9476 -14.1577   N.am      1 RES1   0.0000
    14 C14     -1.4882  -9.4204 -14.3034   C.3       1 RES1   0.0000
    15 H15     -1.1817  -9.7194 -15.3047   H         1 RES1   0.0000
    16 C16     -1.3620  -7.1491 -16.4350   C.3       1 RES1   0.0000
    17 H17     -0.7044  -7.1195 -17.3013   H         1 RES1   0.0000
    18 H18     -2.0258  -8.0045 -16.5429   H         1 RES1   0.0000
    19 H19     -1.9688  -6.2461 -16.4382   H         1 RES1   0.0000
    20 C20     -0.0279  -6.1202 -14.6126   C.2       1 RES1   0.0000
    21 C21      0.6269  -5.0726 -15.4374   C.ar      1 RES1   0.0000
    22 O22     -1.2045  -7.8527 -11.8620   O.2       1 RES1   0.0000
    23 C23     -0.9170  -7.3585 -12.9443   C.2       1 RES1   0.0000
    24 N24     -0.5861  -7.2460 -15.1981   N.3       1 RES1   0.0000
    25 C25     -0.8852 -11.7073 -13.4472   C.3       1 RES1   0.0000
    26 H26     -0.3145 -12.2403 -12.6881   H         1 RES1   0.0000
    27 H27     -0.5593 -12.0254 -14.4364   H         1 RES1   0.0000
    28 C28     -3.1874 -11.2696 -14.2598   C.3       1 RES1   0.0000
    29 H29     -2.9293 -11.5871 -15.2690   H         1 RES1   0.0000
    30 H30     -4.2355 -11.4926 -14.0659   H         1 RES1   0.0000
    31 C31     -2.9648  -9.7698 -14.1360   C.3       1 RES1   0.0000
    32 H32     -3.5411  -9.2595 -14.9062   H         1 RES1   0.0000
    33 H33     -3.2997  -9.4400 -13.1536   H         1 RES1   0.0000
    34 C34     -0.6553 -10.2136 -13.2957   C.3       1 RES1   0.0000
    35 H35     -0.9355  -9.9117 -12.2876   H         1 RES1   0.0000
    36 H36      0.3996  -9.9983 -13.4592   H         1 RES1   0.0000
    37 N37     -2.3396 -12.0118 -13.2809   N.4       1 RES1   1.0000
    38 H38     -2.6223 -11.7525 -12.3412   H         1 RES1   0.0000
    39 H39     -2.4822 -13.0078 -13.4145   H         1 RES1   0.0000
    40 N40     -0.1490  -4.4335 -16.3269   N.ar      1 RES1   0.0000
    41 C41      2.4700  -3.7855 -16.1469   C.ar      1 RES1   0.0000
    42 H42      3.5204  -3.5265 -16.0650   H         1 RES1   0.0000
    43 N43     -0.3324  -2.8774 -18.0012   N.pl3     1 RES1   0.0000
    44 H44      0.0959  -2.1484 -18.5716   H         1 RES1   0.0000
    45 C45      1.9748  -4.7687 -15.3142   C.ar      1 RES1   0.0000
    46 H46      2.6104  -5.2808 -14.5994   H         1 RES1   0.0000
    47 C47      0.4377  -3.5025 -17.0963   C.ar      1 RES1   0.0000
    48 N48      1.7264  -3.1344 -17.0507   N.ar      1 RES1   0.0000
    49 C49     -1.7620  -3.1323 -18.1767   C.3       1 RES1   0.0000
    50 H50     -1.9087  -4.2086 -18.3565   H         1 RES1   0.0000
    51 C51     -2.3468  -2.3636 -19.3453   C.ar      1 RES1   0.0000
    52 C52     -2.4616  -2.7577 -16.8754   C.3       1 RES1   0.0000
    53 H53     -3.4857  -2.4427 -17.0643   H         1 RES1   0.0000
    54 H54     -2.4880  -3.6040 -16.1921   H         1 RES1   0.0000
    55 H55     -1.9416  -1.9397 -16.3813   H         1 RES1   0.0000
    56 C56     -3.4172  -0.9379 -21.4859   C.ar      1 RES1   0.0000
    57 H57     -3.8335  -0.3828 -22.3199   H         1 RES1   0.0000
    58 C58     -2.2998  -0.9772 -19.3696   C.ar      1 RES1   0.0000
    59 H59     -1.8410  -0.4421 -18.5447   H         1 RES1   0.0000
    60 C60     -2.9419  -3.0242 -20.4113   C.ar      1 RES1   0.0000
    61 H61     -2.9920  -4.1080 -20.4137   H         1 RES1   0.0000
    62 C62     -3.4732  -2.3142 -21.4748   C.ar      1 RES1   0.0000
    63 H63     -3.9347  -2.8440 -22.3015   H         1 RES1   0.0000
    64 C64     -2.8309  -0.2689 -20.4341   C.ar      1 RES1   0.0000
    65 H65     -2.7849   0.8150 -20.4396   H         1 RES1   0.0000
@<TRIPOS>BOND
     1     1     5   ar
     2     1     6   ar
     3     1     2    1
     4     3     8   ar
     5     3     9   ar
     6     3     4    1
     7     5     9   ar
     8     5    11    1
     9     6     8   ar
    10     6     7    1
    11     8    12    1
    12     9    10    1
    13    11    20    2
    14    11    23    1
    15    13    14    1
    16    13    23   am
    17    13    24    1
    18    14    31    1
    19    14    34    1
    20    14    15    1
    21    16    24    1
    22    16    17    1
    23    16    18    1
    24    16    19    1
    25    20    21    1
    26    20    24    1
    27    21    40   ar
    28    21    45   ar
    29    22    23    2
    30    25    34    1
    31    25    37    1
    32    25    26    1
    33    25    27    1
    34    28    31    1
    35    28    37    1
    36    28    29    1
    37    28    30    1
    38    31    32    1
    39    31    33    1
    40    34    35    1
    41    34    36    1
    42    37    38    1
    43    37    39    1
    44    40    47   ar
    45    41    45   ar
    46    41    48   ar
    47    41    42    1
    48    43    47    1
    49    43    49    1
    50    43    44    1
    51    45    46    1
    52    47    48   ar
    53    49    51    1
    54    49    52    1
    55    49    50    1
    56    51    58   ar
    57    51    60   ar
    58    52    53    1
    59    52    54    1
    60    52    55    1
    61    56    62   ar
    62    56    64   ar
    63    56    57    1
    64    58    64   ar
    65    58    59    1
    66    60    62   ar
    67    60    61    1
    68    62    63    1
    69    64    65    1
@<TRIPOS>SUBSTRUCTURE
     1 RES1        1 GROUP             0 ****  ****    0  
@<TRIPOS>MOLECULE
LIGAND_00204
    65    69     1     0     0
SMALL
USER_CHARGES
****
Generated from the CSD

@<TRIPOS>ATOM
     1 C1       1.7099  -4.9679 -12.1234   C.ar      1 RES1   0.0000
     2 H2       2.4090  -5.5606 -12.7034   H         1 RES1   0.0000
     3 C3      -0.0479  -3.4197 -10.6589   C.ar      1 RES1   0.0000
     4 H4      -0.7318  -2.8026 -10.0856   H         1 RES1   0.0000
     5 C5       0.3424  -5.1550 -12.3009   C.ar      1 RES1   0.0000
     6 C6       2.1983  -4.0358 -11.2249   C.ar      1 RES1   0.0000
     7 H7       3.2662  -3.9039 -11.0865   H         1 RES1   0.0000
     8 C8       1.3036  -3.2835 -10.5173   C.ar      1 RES1   0.0000
     9 C9      -0.5230  -4.3642 -11.5501   C.ar      1 RES1   0.0000
    10 H10     -1.5943  -4.4891 -11.6590   H         1 RES1   0.0000
    11 C11     -0.2016  -6.1581 -13.2730   C.2       1 RES1   0.0000
    12 F12      1.7769  -2.3610  -9.6359   F         1 RES1   0.0000
    13 N13     -1.2023  -7.9664 -14.1589   N.am      1 RES1   0.0000
    14 C14     -1.4219  -9.4471 -14.2848   C.3       1 RES1   0.0000
    15 H15     -1.0799  -9.7567 -15.2713   H         1 RES1   0.0000
    16 C16     -1.2849  -7.2118 -16.4533   C.3       1 RES1   0.0000
    17 H17     -0.6032  -7.1824 -17.3008   H         1 RES1   0.0000
    18 H18     -1.9258  -8.0840 -16.5644   H         1 RES1   0.0000
    19 H19     -1.9115  -6.3232 -16.4906   H         1 RES1   0.0000
    20 C20     -0.0279  -6.1202 -14.6126   C.2       1 RES1   0.0000
    21 C21      0.6269  -5.0726 -15.4374   C.ar      1 RES1   0.0000
    22 O22     -1.2448  -7.8302 -11.8655   O.2       1 RES1   0.0000
    23 C23     -0.9371  -7.3489 -12.9480   C.2       1 RES1   0.0000
    24 N24     -0.5433  -7.2688 -15.1931   N.3       1 RES1   0.0000
    25 C25     -0.7925 -11.7040 -13.3698   C.3       1 RES1   0.0000
    26 H26     -0.2321 -12.2102 -12.5852   H         1 RES1   0.0000
    27 H27     -0.4311 -12.0320 -14.3433   H         1 RES1   0.0000
    28 C28     -3.0795 -11.3340 -14.2556   C.3       1 RES1   0.0000
    29 H29     -2.7853 -11.6633 -15.2511   H         1 RES1   0.0000
    30 H30     -4.1276 -11.5776 -14.0876   H         1 RES1   0.0000
    31 C31     -2.8945  -9.8275 -14.1531   C.3       1 RES1   0.0000
    32 H32     -3.4597  -9.3443 -14.9487   H         1 RES1   0.0000
    33 H33     -3.2650  -9.4881 -13.1869   H         1 RES1   0.0000
    34 C34     -0.6009 -10.2030 -13.2394   C.3       1 RES1   0.0000
    35 H35     -0.9168  -9.8898 -12.2454   H         1 RES1   0.0000
    36 H36      0.4532  -9.9663 -13.3766   H         1 RES1   0.0000
    37 N37     -2.2439 -12.0390 -13.2396   N.4       1 RES1   1.0000
    38 H38     -2.5595 -11.7696 -12.3132   H         1 RES1   0.0000
    39 H39     -2.3601 -13.0402 -13.3588   H         1 RES1   0.0000
    40 N40     -0.1490  -4.4335 -16.3269   N.ar      1 RES1   0.0000
    41 C41      2.4700  -3.7855 -16.1469   C.ar      1 RES1   0.0000
    42 H42      3.5204  -3.5265 -16.0650   H         1 RES1   0.0000
    43 N43     -0.3324  -2.8774 -18.0012   N.pl3     1 RES1   0.0000
    44 H44      0.0960  -2.1485 -18.5717   H         1 RES1   0.0000
    45 C45      1.9748  -4.7687 -15.3142   C.ar      1 RES1   0.0000
    46 H46      2.6104  -5.2808 -14.5994   H         1 RES1   0.0000
    47 C47      0.4377  -3.5025 -17.0963   C.ar      1 RES1   0.0000
    48 N48      1.7264  -3.1344 -17.0507   N.ar      1 RES1   0.0000
    49 C49     -1.7620  -3.1321 -18.1766   C.3       1 RES1   0.0000
    50 H50     -1.9089  -4.2084 -18.3559   H         1 RES1   0.0000
    51 C51     -2.3468  -2.3638 -19.3454   C.ar      1 RES1   0.0000
    52 C52     -2.4615  -2.7569 -16.8753   C.3       1 RES1   0.0000
    53 H53     -3.4946  -2.4705 -17.0609   H         1 RES1   0.0000
    54 H54     -2.4616  -3.5938 -16.1801   H         1 RES1   0.0000
    55 H55     -1.9588  -1.9191 -16.3967   H         1 RES1   0.0000
    56 C56     -3.4170  -0.9387 -21.4865   C.ar      1 RES1   0.0000
    57 H57     -3.8333  -0.3839 -22.3208   H         1 RES1   0.0000
    58 C58     -2.2995  -0.9774 -19.3702   C.ar      1 RES1   0.0000
    59 H59     -1.8407  -0.4420 -18.5456   H         1 RES1   0.0000
    60 C60     -2.9420  -3.0247 -20.4112   C.ar      1 RES1   0.0000
    61 H61     -2.9923  -4.1085 -20.4131   H         1 RES1   0.0000
    62 C62     -3.4733  -2.3150 -21.4749   C.ar      1 RES1   0.0000
    63 H63     -3.9349  -2.8451 -22.3013   H         1 RES1   0.0000
    64 C64     -2.8305  -0.2695 -20.4350   C.ar      1 RES1   0.0000
    65 H65     -2.7844   0.8144 -20.4409   H         1 RES1   0.0000
@<TRIPOS>BOND
     1     1     5   ar
     2     1     6   ar
     3     1     2    1
     4     3     8   ar
     5     3     9   ar
     6     3     4    1
     7     5     9   ar
     8     5    11    1
     9     6     8   ar
    10     6     7    1
    11     8    12    1
    12     9    10    1
    13    11    20    2
    14    11    23    1
    15    13    14    1
    16    13    23   am
    17    13    24    1
    18    14    31    1
    19    14    34    1
    20    14    15    1
    21    16    24    1
    22    16    17    1
    23    16    18    1
    24    16    19    1
    25    20    21    1
    26    20    24    1
    27    21    40   ar
    28    21    45   ar
    29    22    23    2
    30    25    34    1
    31    25    37    1
    32    25    26    1
    33    25    27    1
    34    28    31    1
    35    28    37    1
    36    28    29    1
    37    28    30    1
    38    31    32    1
    39    31    33    1
    40    34    35    1
    41    34    36    1
    42    37    38    1
    43    37    39    1
    44    40    47   ar
    45    41    45   ar
    46    41    48   ar
    47    41    42    1
    48    43    47    1
    49    43    49    1
    50    43    44    1
    51    45    46    1
    52    47    48   ar
    53    49    51    1
    54    49    52    1
    55    49    50    1
    56    51    58   ar
    57    51    60   ar
    58    52    53    1
    59    52    54    1
    60    52    55    1
    61    56    62   ar
    62    56    64   ar
    63    56    57    1
    64    58    64   ar
    65    58    59    1
    66    60    62   ar
    67    60    61    1
    68    62    63    1
    69    64    65    1
@<TRIPOS>SUBSTRUCTURE
     1 RES1        1 GROUP             0 ****  ****    0  
@<TRIPOS>MOLECULE
LIGAND_00205
    65    69     1     0     0
SMALL
USER_CHARGES
****
Generated from the CSD

@<TRIPOS>ATOM
     1 C1       1.6188  -5.8024 -11.4434   C.ar      1 RES1   0.0000
     2 H2       1.8954  -6.8507 -11.4756   H         1 RES1   0.0000
     3 C3       0.9592  -3.1209 -11.3652   C.ar      1 RES1   0.0000
     4 H4       0.7111  -2.0651 -11.3338   H         1 RES1   0.0000
     5 C5       0.6267  -5.3300 -12.2974   C.ar      1 RES1   0.0000
     6 C6       2.2655  -4.9606 -10.5560   C.ar      1 RES1   0.0000
     7 H7       3.0310  -5.3401  -9.8874   H         1 RES1   0.0000
     8 C8       1.9189  -3.6389 -10.5430   C.ar      1 RES1   0.0000
     9 C9       0.3109  -3.9756 -12.2379   C.ar      1 RES1   0.0000
    10 H10     -0.4620  -3.5761 -12.8845   H         1 RES1   0.0000
    11 C11     -0.0800  -6.2291 -13.2667   C.2       1 RES1   0.0000
    12 F12      2.5546  -2.8040  -9.6766   F         1 RES1   0.0000
    13 N13     -1.2942  -7.9026 -14.1507   N.am      1 RES1   0.0000
    14 C14     -1.6378  -9.3531 -14.3367   C.3       1 RES1   0.0000
    15 H15     -1.4127  -9.6241 -15.3671   H         1 RES1   0.0000
    16 C16     -1.5292  -7.0022 -16.3811   C.3       1 RES1   0.0000
    17 H17     -0.9282  -6.9688 -17.2875   H         1 RES1   0.0000
    18 H18     -2.2429  -7.8178 -16.4781   H         1 RES1   0.0000
    19 H19     -2.0863  -6.0705 -16.3086   H         1 RES1   0.0000
    20 C20     -0.0279  -6.1202 -14.6126   C.2       1 RES1   0.0000
    21 C21      0.6269  -5.0726 -15.4374   C.ar      1 RES1   0.0000
    22 O22     -1.1149  -7.9070 -11.8599   O.2       1 RES1   0.0000
    23 C23     -0.8720  -7.3823 -12.9387   C.2       1 RES1   0.0000
    24 N24     -0.6814  -7.1906 -15.2034   N.3       1 RES1   0.0000
    25 C25     -1.1026 -11.7018 -13.6128   C.3       1 RES1   0.0000
    26 H26     -0.5132 -12.2947 -12.9150   H         1 RES1   0.0000
    27 H27     -0.8585 -11.9934 -14.6333   H         1 RES1   0.0000
    28 C28     -3.4261 -11.1148 -14.2526   C.3       1 RES1   0.0000
    29 H29     -3.2508 -11.4016 -15.2884   H         1 RES1   0.0000
    30 H30     -4.4699 -11.2929 -13.9983   H         1 RES1   0.0000
    31 C31     -3.1169  -9.6347 -14.0851   C.3       1 RES1   0.0000
    32 H32     -3.7139  -9.0637 -14.7947   H         1 RES1   0.0000
    33 H33     -3.3699  -9.3307 -13.0705   H         1 RES1   0.0000
    34 C34     -0.7849 -10.2294 -13.4185   C.3       1 RES1   0.0000
    35 H35     -0.9831  -9.9570 -12.3830   H         1 RES1   0.0000
    36 H36      0.2672 -10.0605 -13.6433   H         1 RES1   0.0000
    37 N37     -2.5574 -11.9397 -13.3623   N.4       1 RES1   1.0000
    38 H38     -2.7649 -11.7068 -12.3964   H         1 RES1   0.0000
    39 H39     -2.7608 -12.9207 -13.5250   H         1 RES1   0.0000
    40 N40      1.6492  -5.4674 -16.2125   N.ar      1 RES1   0.0000
    41 C41      0.9175  -2.8643 -16.2094   C.ar      1 RES1   0.0000
    42 H42      0.6145  -1.8224 -16.2076   H         1 RES1   0.0000
    43 N43      3.3019  -4.9139 -17.7026   N.pl3     1 RES1   0.0000
    44 H44      3.5812  -5.8941 -17.6642   H         1 RES1   0.0000
    45 C45      0.2208  -3.7465 -15.4083   C.ar      1 RES1   0.0000
    46 H46     -0.6032  -3.4174 -14.7839   H         1 RES1   0.0000
    47 C47      2.2656  -4.5244 -16.9431   C.ar      1 RES1   0.0000
    48 N48      1.9469  -3.2225 -16.9876   N.ar      1 RES1   0.0000
    49 C49      4.0953  -4.0083 -18.5333   C.3       1 RES1   0.0000
    50 H50      3.4172  -3.4654 -19.2097   H         1 RES1   0.0000
    51 C51      5.1244  -4.7435 -19.3694   C.ar      1 RES1   0.0000
    52 C52      4.7669  -3.0007 -17.6076   C.3       1 RES1   0.0000
    53 H53      5.7268  -2.6855 -18.0112   H         1 RES1   0.0000
    54 H54      4.1457  -2.1164 -17.4814   H         1 RES1   0.0000
    55 H55      4.9392  -3.4364 -16.6257   H         1 RES1   0.0000
    56 C56      7.0218  -6.0998 -20.8928   C.ar      1 RES1   0.0000
    57 H57      7.7602  -6.6286 -21.4863   H         1 RES1   0.0000
    58 C58      6.1094  -5.5078 -18.7607   C.ar      1 RES1   0.0000
    59 H59      6.1412  -5.5775 -17.6784   H         1 RES1   0.0000
    60 C60      5.1074  -4.6680 -20.7554   C.ar      1 RES1   0.0000
    61 H61      4.3478  -4.0750 -21.2538   H         1 RES1   0.0000
    62 C62      6.0510  -5.3431 -21.5113   C.ar      1 RES1   0.0000
    63 H63      6.0251  -5.2755 -22.5938   H         1 RES1   0.0000
    64 C64      7.0516  -6.1826 -19.5182   C.ar      1 RES1   0.0000
    65 H65      7.8146  -6.7778 -19.0277   H         1 RES1   0.0000
@<TRIPOS>BOND
     1     1     5   ar
     2     1     6   ar
     3     1     2    1
     4     3     8   ar
     5     3     9   ar
     6     3     4    1
     7     5     9   ar
     8     5    11    1
     9     6     8   ar
    10     6     7    1
    11     8    12    1
    12     9    10    1
    13    11    20    2
    14    11    23    1
    15    13    14    1
    16    13    23   am
    17    13    24    1
    18    14    31    1
    19    14    34    1
    20    14    15    1
    21    16    24    1
    22    16    17    1
    23    16    18    1
    24    16    19    1
    25    20    21    1
    26    20    24    1
    27    21    40   ar
    28    21    45   ar
    29    22    23    2
    30    25    34    1
    31    25    37    1
    32    25    26    1
    33    25    27    1
    34    28    31    1
    35    28    37    1
    36    28    29    1
    37    28    30    1
    38    31    32    1
    39    31    33    1
    40    34    35    1
    41    34    36    1
    42    37    38    1
    43    37    39    1
    44    40    47   ar
    45    41    45   ar
    46    41    48   ar
    47    41    42    1
    48    43    47    1
    49    43    49    1
    50    43    44    1
    51    45    46    1
    52    47    48   ar
    53    49    51    1
    54    49    52    1
    55    49    50    1
    56    51    58   ar
    57    51    60   ar
    58    52    53    1
    59    52    54    1
    60    52    55    1
    61    56    62   ar
    62    56    64   ar
    63    56    57    1
    64    58    64   ar
    65    58    59    1
    66    60    62   ar
    67    60    61    1
    68    62    63    1
    69    64    65    1
@<TRIPOS>SUBSTRUCTURE
     1 RES1        1 GROUP             0 ****  ****    0  
@<TRIPOS>MOLECULE
LIGAND_00206
    65    69     1     0     0
SMALL
USER_CHARGES
****
Generated from the CSD

@<TRIPOS>ATOM
     1 C1      -2.8355  -4.3671 -16.3560   C.ar      1 RES1   0.0000
     2 H2      -3.4690  -5.2165 -16.5878   H         1 RES1   0.0000
     3 C3      -1.2601  -2.1772 -15.7606   C.ar      1 RES1   0.0000
     4 H4      -0.6505  -1.3106 -15.5271   H         1 RES1   0.0000
     5 C5      -1.8479  -4.4950 -15.3838   C.ar      1 RES1   0.0000
     6 C6      -3.0310  -3.1751 -17.0309   C.ar      1 RES1   0.0000
     7 H7      -3.7971  -3.0878 -17.7941   H         1 RES1   0.0000
     8 C8      -2.2375  -2.1093 -16.7120   C.ar      1 RES1   0.0000
     9 C9      -1.0659  -3.3781 -15.1030   C.ar      1 RES1   0.0000
    10 H10     -0.2832  -3.4455 -14.3561   H         1 RES1   0.0000
    11 C11     -1.6268  -5.7786 -14.6417   C.2       1 RES1   0.0000
    12 F12     -2.4278  -0.9323 -17.3679   F         1 RES1   0.0000
    13 N13     -1.2275  -7.9377 -14.1568   N.am      1 RES1   0.0000
    14 C14     -1.4825  -9.4110 -14.3017   C.3       1 RES1   0.0000
    15 H15     -1.1970  -9.7057 -15.3104   H         1 RES1   0.0000
    16 C16     -0.8629  -7.6844 -11.7812   C.3       1 RES1   0.0000
    17 H17     -1.4308  -8.4052 -11.1966   H         1 RES1   0.0000
    18 H18      0.0835  -8.1440 -12.0586   H         1 RES1   0.0000
    19 H19     -0.6505  -6.8256 -11.1480   H         1 RES1   0.0000
    20 C20     -1.7513  -5.9390 -13.3057   C.2       1 RES1   0.0000
    21 C21     -2.0254  -4.9138 -12.2663   C.ar      1 RES1   0.0000
    22 O22     -1.1930  -7.3975 -16.3900   O.2       1 RES1   0.0000
    23 C23     -1.3105  -7.0551 -15.2207   C.2       1 RES1   0.0000
    24 N24     -1.6114  -7.2770 -12.9708   N.3       1 RES1   0.0000
    25 C25     -0.8527 -11.6984 -13.4663   C.3       1 RES1   0.0000
    26 H26     -0.2636 -12.2318 -12.7216   H         1 RES1   0.0000
    27 H27     -0.5474 -12.0122 -14.4634   H         1 RES1   0.0000
    28 C28     -3.1737 -11.2666 -14.2268   C.3       1 RES1   0.0000
    29 H29     -2.9367 -11.5799 -15.2425   H         1 RES1   0.0000
    30 H30     -4.2166 -11.4940 -14.0108   H         1 RES1   0.0000
    31 C31     -2.9539  -9.7664 -14.1031   C.3       1 RES1   0.0000
    32 H32     -3.5488  -9.2557 -14.8589   H         1 RES1   0.0000
    33 H33     -3.2683  -9.4409 -13.1126   H         1 RES1   0.0000
    34 C34     -0.6250 -10.2044 -13.3150   C.3       1 RES1   0.0000
    35 H35     -0.8841  -9.9067 -12.3001   H         1 RES1   0.0000
    36 H36      0.4253  -9.9847 -13.5008   H         1 RES1   0.0000
    37 N37     -2.3020 -12.0087 -13.2692   N.4       1 RES1   1.0000
    38 H38     -2.5651 -11.7535 -12.3227   H         1 RES1   0.0000
    39 H39     -2.4439 -13.0048 -13.4028   H         1 RES1   0.0000
    40 N40     -1.1245  -3.9267 -12.1410   N.ar      1 RES1   0.0000
    41 C41     -3.2824  -3.9653 -10.5120   C.ar      1 RES1   0.0000
    42 H42     -4.1537  -3.9839  -9.8657   H         1 RES1   0.0000
    43 N43     -0.4373  -2.0325 -11.0465   N.pl3     1 RES1   0.0000
    44 H44     -0.6217  -1.3015 -10.3595   H         1 RES1   0.0000
    45 C45     -3.1458  -4.9686 -11.4502   C.ar      1 RES1   0.0000
    46 H46     -3.8787  -5.7633 -11.5427   H         1 RES1   0.0000
    47 C47     -1.3484  -3.0085 -11.1872   C.ar      1 RES1   0.0000
    48 N48     -2.3988  -2.9712 -10.3544   N.ar      1 RES1   0.0000
    49 C49      0.7726  -1.9172 -11.8604   C.3       1 RES1   0.0000
    50 H50      1.0562  -2.9204 -12.2144   H         1 RES1   0.0000
    51 C51      1.9368  -1.3318 -11.0855   C.ar      1 RES1   0.0000
    52 C52      0.4356  -1.0530 -13.0699   C.3       1 RES1   0.0000
    53 H53      1.1392  -1.2316 -13.8803   H         1 RES1   0.0000
    54 H54     -0.5653  -1.2719 -13.4358   H         1 RES1   0.0000
    55 H55      0.4782   0.0030 -12.8113   H         1 RES1   0.0000
    56 C56      4.0661  -0.2476  -9.6534   C.ar      1 RES1   0.0000
    57 H57      4.8954   0.1741  -9.0952   H         1 RES1   0.0000
    58 C58      1.7181  -0.3821 -10.0980   C.ar      1 RES1   0.0000
    59 H59      0.7056  -0.0576  -9.8815   H         1 RES1   0.0000
    60 C60      3.2417  -1.7278 -11.3453   C.ar      1 RES1   0.0000
    61 H61      3.4375  -2.4678 -12.1142   H         1 RES1   0.0000
    62 C62      4.2990  -1.1882 -10.6324   C.ar      1 RES1   0.0000
    63 H63      5.3136  -1.5076 -10.8459   H         1 RES1   0.0000
    64 C64      2.7765   0.1558  -9.3857   C.ar      1 RES1   0.0000
    65 H65      2.5894   0.8963  -8.6152   H         1 RES1   0.0000
@<TRIPOS>BOND
     1     1     5   ar
     2     1     6   ar
     3     1     2    1
     4     3     8   ar
     5     3     9   ar
     6     3     4    1
     7     5     9   ar
     8     5    11    1
     9     6     8   ar
    10     6     7    1
    11     8    12    1
    12     9    10    1
    13    11    20    2
    14    11    23    1
    15    13    14    1
    16    13    23   am
    17    13    24    1
    18    14    31    1
    19    14    34    1
    20    14    15    1
    21    16    24    1
    22    16    17    1
    23    16    18    1
    24    16    19    1
    25    20    21    1
    26    20    24    1
    27    21    40   ar
    28    21    45   ar
    29    22    23    2
    30    25    34    1
    31    25    37    1
    32    25    26    1
    33    25    27    1
    34    28    31    1
    35    28    37    1
    36    28    29    1
    37    28    30    1
    38    31    32    1
    39    31    33    1
    40    34    35    1
    41    34    36    1
    42    37    38    1
    43    37    39    1
    44    40    47   ar
    45    41    45   ar
    46    41    48   ar
    47    41    42    1
    48    43    47    1
    49    43    49    1
    50    43    44    1
    51    45    46    1
    52    47    48   ar
    53    49    51    1
    54    49    52    1
    55    49    50    1
    56    51    58   ar
    57    51    60   ar
    58    52    53    1
    59    52    54    1
    60    52    55    1
    61    56    62   ar
    62    56    64   ar
    63    56    57    1
    64    58    64   ar
    65    58    59    1
    66    60    62   ar
    67    60    61    1
    68    62    63    1
    69    64    65    1
@<TRIPOS>SUBSTRUCTURE
     1 RES1        1 GROUP             0 ****  ****    0  
@<TRIPOS>MOLECULE
LIGAND_00207
    65    69     1     0     0
SMALL
USER_CHARGES
****
Generated from the CSD

@<TRIPOS>ATOM
     1 C1      -0.3088  -3.4844 -14.8706   C.ar      1 RES1   0.0000
     2 H2      -1.3903  -3.4811 -14.7880   H         1 RES1   0.0000
     3 C3       2.4475  -3.4548 -15.0541   C.ar      1 RES1   0.0000
     4 H4       3.5302  -3.4331 -15.1210   H         1 RES1   0.0000
     5 C5       0.3945  -4.6544 -14.6003   C.ar      1 RES1   0.0000
     6 C6       0.3437  -2.3208 -15.2377   C.ar      1 RES1   0.0000
     7 H7      -0.2140  -1.4161 -15.4558   H         1 RES1   0.0000
     8 C8       1.7077  -2.3373 -15.3172   C.ar      1 RES1   0.0000
     9 C9       1.7823  -4.6147 -14.7015   C.ar      1 RES1   0.0000
    10 H10      2.3603  -5.5104 -14.5044   H         1 RES1   0.0000
    11 C11     -0.2981  -5.9215 -14.1978   C.2       1 RES1   0.0000
    12 F12      2.3565  -1.1950 -15.6723   F         1 RES1   0.0000
    13 N13     -1.2096  -7.9620 -14.1230   N.am      1 RES1   0.0000
    14 C14     -1.4267  -9.4435 -14.2439   C.3       1 RES1   0.0000
    15 H15     -0.8849  -9.7939 -15.1212   H         1 RES1   0.0000
    16 C16     -2.8734  -7.5626 -12.3685   C.3       1 RES1   0.0000
    17 H17     -3.1097  -6.8494 -11.5815   H         1 RES1   0.0000
    18 H18     -3.6534  -7.5028 -13.1249   H         1 RES1   0.0000
    19 H19     -2.8935  -8.5618 -11.9386   H         1 RES1   0.0000
    20 C20     -1.0688  -6.0097 -13.0848   C.2       1 RES1   0.0000
    21 C21     -1.4087  -4.9383 -12.1137   C.ar      1 RES1   0.0000
    22 O22      0.2151  -7.5855 -15.8980   O.2       1 RES1   0.0000
    23 C23     -0.3475  -7.1868 -14.8867   C.2       1 RES1   0.0000
    24 N24     -1.5617  -7.2766 -12.9508   N.3       1 RES1   0.0000
    25 C25     -1.0572 -11.6724 -13.1383   C.3       1 RES1   0.0000
    26 H26     -0.6912 -12.1560 -12.2339   H         1 RES1   0.0000
    27 H27     -0.4997 -12.0410 -13.9981   H         1 RES1   0.0000
    28 C28     -3.0892 -11.3070 -14.5130   C.3       1 RES1   0.0000
    29 H29     -2.5925 -11.6768 -15.4088   H         1 RES1   0.0000
    30 H30     -4.1534 -11.5310 -14.5694   H         1 RES1   0.0000
    31 C31     -2.9002  -9.8002 -14.4234   C.3       1 RES1   0.0000
    32 H32     -3.2690  -9.3399 -15.3389   H         1 RES1   0.0000
    33 H33     -3.4647  -9.4204 -13.5732   H         1 RES1   0.0000
    34 C34     -0.8680 -10.1701 -13.0198   C.3       1 RES1   0.0000
    35 H35     -1.3859  -9.8161 -12.1297   H         1 RES1   0.0000
    36 H36      0.1953  -9.9520 -12.9320   H         1 RES1   0.0000
    37 N37     -2.5088 -11.9840 -13.3162   N.4       1 RES1   1.0000
    38 H38     -3.0125 -11.6764 -12.4905   H         1 RES1   0.0000
    39 H39     -2.6167 -12.9875 -13.4241   H         1 RES1   0.0000
    40 N40     -2.7044  -4.6015 -12.0170   N.ar      1 RES1   0.0000
    41 C41     -0.8828  -3.3107 -10.4916   C.ar      1 RES1   0.0000
    42 H42     -0.1470  -2.8011  -9.8782   H         1 RES1   0.0000
    43 N43     -4.3133  -3.2636 -11.0790   N.pl3     1 RES1   0.0000
    44 H44     -4.5718  -2.5490 -10.3986   H         1 RES1   0.0000
    45 C45     -0.4438  -4.3003 -11.3480   C.ar      1 RES1   0.0000
    46 H46      0.6060  -4.5644 -11.4202   H         1 RES1   0.0000
    47 C47     -3.0204  -3.6162 -11.1612   C.ar      1 RES1   0.0000
    48 N48     -2.1657  -2.9439 -10.3765   N.ar      1 RES1   0.0000
    49 C49     -5.3834  -3.8845 -11.8594   C.3       1 RES1   0.0000
    50 H50     -5.1215  -4.9384 -12.0407   H         1 RES1   0.0000
    51 C51     -5.5938  -3.2024 -13.1969   C.ar      1 RES1   0.0000
    52 C52     -6.6547  -3.8377 -11.0198   C.3       1 RES1   0.0000
    53 H53     -7.4431  -4.4302 -11.4794   H         1 RES1   0.0000
    54 H54     -6.4744  -4.2303 -10.0212   H         1 RES1   0.0000
    55 H55     -7.0132  -2.8152 -10.9220   H         1 RES1   0.0000
    56 C56     -5.9953  -1.9531 -15.6542   C.ar      1 RES1   0.0000
    57 H57     -6.1516  -1.4659 -16.6110   H         1 RES1   0.0000
    58 C58     -6.8441  -3.2037 -13.7983   C.ar      1 RES1   0.0000
    59 H59     -7.6751  -3.6976 -13.3058   H         1 RES1   0.0000
    60 C60     -4.5465  -2.5662 -13.8491   C.ar      1 RES1   0.0000
    61 H61     -3.5594  -2.5536 -13.3991   H         1 RES1   0.0000
    62 C62     -4.7476  -1.9453 -15.0703   C.ar      1 RES1   0.0000
    63 H63     -3.9199  -1.4514 -15.5682   H         1 RES1   0.0000
    64 C64     -7.0435  -2.5818 -15.0191   C.ar      1 RES1   0.0000
    65 H65     -8.0275  -2.5897 -15.4760   H         1 RES1   0.0000
@<TRIPOS>BOND
     1     1     5   ar
     2     1     6   ar
     3     1     2    1
     4     3     8   ar
     5     3     9   ar
     6     3     4    1
     7     5     9   ar
     8     5    11    1
     9     6     8   ar
    10     6     7    1
    11     8    12    1
    12     9    10    1
    13    11    20    2
    14    11    23    1
    15    13    14    1
    16    13    23   am
    17    13    24    1
    18    14    31    1
    19    14    34    1
    20    14    15    1
    21    16    24    1
    22    16    17    1
    23    16    18    1
    24    16    19    1
    25    20    21    1
    26    20    24    1
    27    21    40   ar
    28    21    45   ar
    29    22    23    2
    30    25    34    1
    31    25    37    1
    32    25    26    1
    33    25    27    1
    34    28    31    1
    35    28    37    1
    36    28    29    1
    37    28    30    1
    38    31    32    1
    39    31    33    1
    40    34    35    1
    41    34    36    1
    42    37    38    1
    43    37    39    1
    44    40    47   ar
    45    41    45   ar
    46    41    48   ar
    47    41    42    1
    48    43    47    1
    49    43    49    1
    50    43    44    1
    51    45    46    1
    52    47    48   ar
    53    49    51    1
    54    49    52    1
    55    49    50    1
    56    51    58   ar
    57    51    60   ar
    58    52    53    1
    59    52    54    1
    60    52    55    1
    61    56    62   ar
    62    56    64   ar
    63    56    57    1
    64    58    64   ar
    65    58    59    1
    66    60    62   ar
    67    60    61    1
    68    62    63    1
    69    64    65    1
@<TRIPOS>SUBSTRUCTURE
     1 RES1        1 GROUP             0 ****  ****    0  
@<TRIPOS>MOLECULE
LIGAND_00208
    65    69     1     0     0
SMALL
USER_CHARGES
****
Generated from the CSD

@<TRIPOS>ATOM
     1 C1       1.2804  -5.5671 -11.2971   C.ar      1 RES1   0.0000
     2 H2       1.5728  -6.6083 -11.2139   H         1 RES1   0.0000
     3 C3       0.5805  -2.9030 -11.5082   C.ar      1 RES1   0.0000
     4 H4       0.3164  -1.8538 -11.5893   H         1 RES1   0.0000
     5 C5       0.3923  -5.1836 -12.2976   C.ar      1 RES1   0.0000
     6 C6       1.8041  -4.6457 -10.4075   C.ar      1 RES1   0.0000
     7 H7       2.4883  -4.9558  -9.6248   H         1 RES1   0.0000
     8 C8       1.4408  -3.3351 -10.5395   C.ar      1 RES1   0.0000
     9 C9       0.0536  -3.8361 -12.3823   C.ar      1 RES1   0.0000
    10 H10     -0.6409  -3.5046 -13.1458   H         1 RES1   0.0000
    11 C11     -0.1803  -6.1696 -13.2708   C.2       1 RES1   0.0000
    12 F12      1.9562  -2.4225  -9.6715   F         1 RES1   0.0000
    13 N13     -1.2186  -7.9559 -14.1584   N.am      1 RES1   0.0000
    14 C14     -1.4593  -9.4323 -14.2956   C.3       1 RES1   0.0000
    15 H15     -1.1377  -9.7359 -15.2908   H         1 RES1   0.0000
    16 C16     -1.3286  -7.1766 -16.4434   C.3       1 RES1   0.0000
    17 H17     -0.6817  -7.3475 -17.3014   H         1 RES1   0.0000
    18 H18     -2.1196  -7.9235 -16.4617   H         1 RES1   0.0000
    19 H19     -1.7857  -6.1954 -16.5528   H         1 RES1   0.0000
    20 C20     -0.0279  -6.1202 -14.6126   C.2       1 RES1   0.0000
    21 C21      0.6269  -5.0726 -15.4374   C.ar      1 RES1   0.0000
    22 O22     -1.2220  -7.8427 -11.8633   O.2       1 RES1   0.0000
    23 C23     -0.9258  -7.3543 -12.9459   C.2       1 RES1   0.0000
    24 N24     -0.5675  -7.2561 -15.1961   N.3       1 RES1   0.0000
    25 C25     -0.8440 -11.7063 -13.4142   C.3       1 RES1   0.0000
    26 H26     -0.2773 -12.2277 -12.6442   H         1 RES1   0.0000
    27 H27     -0.5030 -12.0288 -14.3969   H         1 RES1   0.0000
    28 C28     -3.1404 -11.2981 -14.2579   C.3       1 RES1   0.0000
    29 H29     -2.8670 -11.6208 -15.2614   H         1 RES1   0.0000
    30 H30     -4.1886 -11.5300 -14.0749   H         1 RES1   0.0000
    31 C31     -2.9343  -9.7952 -14.1432   C.3       1 RES1   0.0000
    32 H32     -3.5063  -9.2966 -14.9243   H         1 RES1   0.0000
    33 H33     -3.2843  -9.4611 -13.1676   H         1 RES1   0.0000
    34 C34     -0.6309 -10.2093 -13.2718   C.3       1 RES1   0.0000
    35 H35     -0.9262  -9.9024 -12.2695   H         1 RES1   0.0000
    36 H36      0.4237  -9.9847 -13.4242   H         1 RES1   0.0000
    37 N37     -2.2972 -12.0241 -13.2631   N.4       1 RES1   1.0000
    38 H38     -2.5939 -11.7604 -12.3290   H         1 RES1   0.0000
    39 H39     -2.4283 -13.0225 -13.3905   H         1 RES1   0.0000
    40 N40     -0.1490  -4.4335 -16.3269   N.ar      1 RES1   0.0000
    41 C41      2.4700  -3.7855 -16.1469   C.ar      1 RES1   0.0000
    42 H42      3.5204  -3.5265 -16.0650   H         1 RES1   0.0000
    43 N43     -0.3324  -2.8774 -18.0012   N.pl3     1 RES1   0.0000
    44 H44      0.0763  -2.1021 -18.5230   H         1 RES1   0.0000
    45 C45      1.9748  -4.7687 -15.3142   C.ar      1 RES1   0.0000
    46 H46      2.6104  -5.2808 -14.5994   H         1 RES1   0.0000
    47 C47      0.4377  -3.5025 -17.0963   C.ar      1 RES1   0.0000
    48 N48      1.7264  -3.1344 -17.0507   N.ar      1 RES1   0.0000
    49 C49     -1.7394  -3.1972 -18.2408   C.3       1 RES1   0.0000
    50 H50     -2.1747  -3.5920 -17.3097   H         1 RES1   0.0000
    51 C51     -1.9188  -4.2321 -19.3341   C.ar      1 RES1   0.0000
    52 C52     -2.4541  -1.8994 -18.5986   C.3       1 RES1   0.0000
    53 H53     -3.5163  -2.0743 -18.7564   H         1 RES1   0.0000
    54 H54     -2.3463  -1.1654 -17.8027   H         1 RES1   0.0000
    55 H55     -2.0422  -1.4728 -19.5108   H         1 RES1   0.0000
    56 C56     -2.2574  -6.1237 -21.3510   C.ar      1 RES1   0.0000
    57 H57     -2.3886  -6.8602 -22.1367   H         1 RES1   0.0000
    58 C58     -2.7069  -3.9556 -20.4420   C.ar      1 RES1   0.0000
    59 H59     -3.1975  -2.9913 -20.5234   H         1 RES1   0.0000
    60 C60     -1.3046  -5.4743 -19.2525   C.ar      1 RES1   0.0000
    61 H61     -0.6850  -5.7139 -18.3947   H         1 RES1   0.0000
    62 C62     -1.4735  -6.4134 -20.2559   C.ar      1 RES1   0.0000
    63 H63     -0.9868  -7.3799 -20.1789   H         1 RES1   0.0000
    64 C64     -2.8741  -4.8955 -21.4447   C.ar      1 RES1   0.0000
    65 H65     -3.4921  -4.6640 -22.3058   H         1 RES1   0.0000
@<TRIPOS>BOND
     1     1     5   ar
     2     1     6   ar
     3     1     2    1
     4     3     8   ar
     5     3     9   ar
     6     3     4    1
     7     5     9   ar
     8     5    11    1
     9     6     8   ar
    10     6     7    1
    11     8    12    1
    12     9    10    1
    13    11    20    2
    14    11    23    1
    15    13    14    1
    16    13    23   am
    17    13    24    1
    18    14    31    1
    19    14    34    1
    20    14    15    1
    21    16    24    1
    22    16    17    1
    23    16    18    1
    24    16    19    1
    25    20    21    1
    26    20    24    1
    27    21    40   ar
    28    21    45   ar
    29    22    23    2
    30    25    34    1
    31    25    37    1
    32    25    26    1
    33    25    27    1
    34    28    31    1
    35    28    37    1
    36    28    29    1
    37    28    30    1
    38    31    32    1
    39    31    33    1
    40    34    35    1
    41    34    36    1
    42    37    38    1
    43    37    39    1
    44    40    47   ar
    45    41    45   ar
    46    41    48   ar
    47    41    42    1
    48    43    47    1
    49    43    49    1
    50    43    44    1
    51    45    46    1
    52    47    48   ar
    53    49    51    1
    54    49    52    1
    55    49    50    1
    56    51    58   ar
    57    51    60   ar
    58    52    53    1
    59    52    54    1
    60    52    55    1
    61    56    62   ar
    62    56    64   ar
    63    56    57    1
    64    58    64   ar
    65    58    59    1
    66    60    62   ar
    67    60    61    1
    68    62    63    1
    69    64    65    1
@<TRIPOS>SUBSTRUCTURE
     1 RES1        1 GROUP             0 ****  ****    0  
@<TRIPOS>MOLECULE
LIGAND_00209
    65    69     1     0     0
SMALL
USER_CHARGES
****
Generated from the CSD

@<TRIPOS>ATOM
     1 C1       1.7869  -4.9905 -12.1945   C.ar      1 RES1   0.0000
     2 H2       2.4592  -5.5495 -12.8363   H         1 RES1   0.0000
     3 C3       0.0956  -3.5273 -10.5727   C.ar      1 RES1   0.0000
     4 H4      -0.5624  -2.9434  -9.9376   H         1 RES1   0.0000
     5 C5       0.4143  -5.1965 -12.2965   C.ar      1 RES1   0.0000
     6 C6       2.3133  -4.0816 -11.2938   C.ar      1 RES1   0.0000
     7 H7       3.3853  -3.9349 -11.2148   H         1 RES1   0.0000
     8 C8       1.4508  -3.3712 -10.5073   C.ar      1 RES1   0.0000
     9 C9      -0.4170  -4.4487 -11.4674   C.ar      1 RES1   0.0000
    10 H10     -1.4907  -4.5895 -11.5164   H         1 RES1   0.0000
    11 C11     -0.1709  -6.1748 -13.2700   C.2       1 RES1   0.0000
    12 F12      1.9613  -2.4715  -9.6230   F         1 RES1   0.0000
    13 N13     -1.2257  -7.9511 -14.1580   N.am      1 RES1   0.0000
    14 C14     -1.4758  -9.4255 -14.3001   C.3       1 RES1   0.0000
    15 H15     -1.1625  -9.7266 -15.2987   H         1 RES1   0.0000
    16 C16     -1.3477  -7.1609 -16.4386   C.3       1 RES1   0.0000
    17 H17     -0.6852  -7.1028 -17.2997   H         1 RES1   0.0000
    18 H18     -1.9864  -8.0333 -16.5612   H         1 RES1   0.0000
    19 H19     -1.9797  -6.2753 -16.4361   H         1 RES1   0.0000
    20 C20     -0.0279  -6.1202 -14.6126   C.2       1 RES1   0.0000
    21 C21      0.6269  -5.0726 -15.4374   C.ar      1 RES1   0.0000
    22 O22     -1.2120  -7.8484 -11.8625   O.2       1 RES1   0.0000
    23 C23     -0.9208  -7.3567 -12.9450   C.2       1 RES1   0.0000
    24 N24     -0.5781  -7.2504 -15.1973   N.3       1 RES1   0.0000
    25 C25     -0.8679 -11.7069 -13.4327   C.3       1 RES1   0.0000
    26 H26     -0.2993 -12.2350 -12.6687   H         1 RES1   0.0000
    27 H27     -0.5352 -12.0270 -14.4190   H         1 RES1   0.0000
    28 C28     -3.1674 -11.2818 -14.2596   C.3       1 RES1   0.0000
    29 H29     -2.9024 -11.6016 -15.2663   H         1 RES1   0.0000
    30 H30     -4.2157 -11.5085 -14.0709   H         1 RES1   0.0000
    31 C31     -2.9519  -9.7807 -14.1397   C.3       1 RES1   0.0000
    32 H32     -3.5260  -9.2754 -14.9149   H         1 RES1   0.0000
    33 H33     -3.2936  -9.4489 -13.1604   H         1 RES1   0.0000
    34 C34     -0.6453 -10.2118 -13.2851   C.3       1 RES1   0.0000
    35 H35     -0.9324  -9.9076 -12.2796   H         1 RES1   0.0000
    36 H36      0.4096  -9.9925 -13.4434   H         1 RES1   0.0000
    37 N37     -2.3220 -12.0170 -13.2736   N.4       1 RES1   1.0000
    38 H38     -2.6111 -11.7557 -12.3363   H         1 RES1   0.0000
    39 H39     -2.4596 -13.0141 -13.4045   H         1 RES1   0.0000
    40 N40      1.9341  -4.8618 -15.2172   N.ar      1 RES1   0.0000
    41 C41      0.6476  -3.3780 -17.0759   C.ar      1 RES1   0.0000
    42 H42      0.1263  -2.7903 -17.8244   H         1 RES1   0.0000
    43 N43      3.8333  -3.6727 -15.7046   N.pl3     1 RES1   0.0000
    44 H44      4.2861  -4.2077 -14.9636   H         1 RES1   0.0000
    45 C45     -0.0686  -4.3328 -16.3825   C.ar      1 RES1   0.0000
    46 H46     -1.1255  -4.4947 -16.5666   H         1 RES1   0.0000
    47 C47      2.5308  -3.8993 -15.9388   C.ar      1 RES1   0.0000
    48 N48      1.9495  -3.1358 -16.8754   N.ar      1 RES1   0.0000
    49 C49      4.6278  -2.6622 -16.4025   C.3       1 RES1   0.0000
    50 H50      3.9769  -1.8082 -16.6458   H         1 RES1   0.0000
    51 C51      5.2329  -3.1897 -17.6886   C.ar      1 RES1   0.0000
    52 C52      5.7149  -2.1868 -15.4456   C.3       1 RES1   0.0000
    53 H53      6.3191  -1.4069 -15.9043   H         1 RES1   0.0000
    54 H54      5.2794  -1.7853 -14.5330   H         1 RES1   0.0000
    55 H55      6.3734  -3.0090 -15.1734   H         1 RES1   0.0000
    56 C56      6.3452  -4.1733 -20.0457   C.ar      1 RES1   0.0000
    57 H57      6.7777  -4.5563 -20.9640   H         1 RES1   0.0000
    58 C58      5.5620  -4.5319 -17.8126   C.ar      1 RES1   0.0000
    59 H59      5.3844  -5.2061 -16.9813   H         1 RES1   0.0000
    60 C60      5.4730  -2.3474 -18.7655   C.ar      1 RES1   0.0000
    61 H61      5.2255  -1.2937 -18.6914   H         1 RES1   0.0000
    62 C62      6.0256  -2.8378 -19.9367   C.ar      1 RES1   0.0000
    63 H63      6.2070  -2.1678 -20.7705   H         1 RES1   0.0000
    64 C64      6.1138  -5.0206 -18.9846   C.ar      1 RES1   0.0000
    65 H65      6.3642  -6.0730 -19.0670   H         1 RES1   0.0000
@<TRIPOS>BOND
     1     1     5   ar
     2     1     6   ar
     3     1     2    1
     4     3     8   ar
     5     3     9   ar
     6     3     4    1
     7     5     9   ar
     8     5    11    1
     9     6     8   ar
    10     6     7    1
    11     8    12    1
    12     9    10    1
    13    11    20    2
    14    11    23    1
    15    13    14    1
    16    13    23   am
    17    13    24    1
    18    14    31    1
    19    14    34    1
    20    14    15    1
    21    16    24    1
    22    16    17    1
    23    16    18    1
    24    16    19    1
    25    20    21    1
    26    20    24    1
    27    21    40   ar
    28    21    45   ar
    29    22    23    2
    30    25    34    1
    31    25    37    1
    32    25    26    1
    33    25    27    1
    34    28    31    1
    35    28    37    1
    36    28    29    1
    37    28    30    1
    38    31    32    1
    39    31    33    1
    40    34    35    1
    41    34    36    1
    42    37    38    1
    43    37    39    1
    44    40    47   ar
    45    41    45   ar
    46    41    48   ar
    47    41    42    1
    48    43    47    1
    49    43    49    1
    50    43    44    1
    51    45    46    1
    52    47    48   ar
    53    49    51    1
    54    49    52    1
    55    49    50    1
    56    51    58   ar
    57    51    60   ar
    58    52    53    1
    59    52    54    1
    60    52    55    1
    61    56    62   ar
    62    56    64   ar
    63    56    57    1
    64    58    64   ar
    65    58    59    1
    66    60    62   ar
    67    60    61    1
    68    62    63    1
    69    64    65    1
@<TRIPOS>SUBSTRUCTURE
     1 RES1        1 GROUP             0 ****  ****    0  
@<TRIPOS>MOLECULE
LIGAND_00210
    65    69     1     0     0
SMALL
USER_CHARGES
****
Generated from the CSD

@<TRIPOS>ATOM
     1 C1      -2.4793  -4.2530 -16.4101   C.ar      1 RES1   0.0000
     2 H2      -3.1363  -5.0584 -16.7201   H         1 RES1   0.0000
     3 C3      -0.8428  -2.1729 -15.6184   C.ar      1 RES1   0.0000
     4 H4      -0.2087  -1.3488 -15.3085   H         1 RES1   0.0000
     5 C5      -1.5965  -4.4580 -15.3540   C.ar      1 RES1   0.0000
     6 C6      -2.5413  -3.0390 -17.0712   C.ar      1 RES1   0.0000
     7 H7      -3.2260  -2.8917 -17.8997   H         1 RES1   0.0000
     8 C8      -1.7209  -2.0288 -16.6544   C.ar      1 RES1   0.0000
     9 C9      -0.7810  -3.3954 -14.9750   C.ar      1 RES1   0.0000
    10 H10     -0.0771  -3.5235 -14.1606   H         1 RES1   0.0000
    11 C11     -1.5207  -5.7662 -14.6259   C.2       1 RES1   0.0000
    12 F12     -1.7804  -0.8304 -17.2964   F         1 RES1   0.0000
    13 N13     -1.3114  -7.9562 -14.1607   N.am      1 RES1   0.0000
    14 C14     -1.6594  -9.4046 -14.3547   C.3       1 RES1   0.0000
    15 H15     -1.3267  -9.7019 -15.3481   H         1 RES1   0.0000
    16 C16     -1.1003  -7.7688 -11.7605   C.3       1 RES1   0.0000
    17 H17     -1.7555  -8.4613 -11.2361   H         1 RES1   0.0000
    18 H18     -0.1682  -8.2853 -11.9802   H         1 RES1   0.0000
    19 H19     -0.8792  -6.9388 -11.0929   H         1 RES1   0.0000
    20 C20     -1.7513  -5.9390 -13.3057   C.2       1 RES1   0.0000
    21 C21     -2.0254  -4.9138 -12.2663   C.ar      1 RES1   0.0000
    22 O22     -1.0792  -7.3834 -16.3739   O.2       1 RES1   0.0000
    23 C23     -1.2553  -7.0526 -15.2086   C.2       1 RES1   0.0000
    24 N24     -1.7310  -7.2889 -12.9906   N.3       1 RES1   0.0000
    25 C25     -1.2520 -11.7453 -13.5290   C.3       1 RES1   0.0000
    26 H26     -0.7547 -12.3323 -12.7582   H         1 RES1   0.0000
    27 H27     -0.9018 -12.0633 -14.5099   H         1 RES1   0.0000
    28 C28     -3.4788 -11.1344 -14.4346   C.3       1 RES1   0.0000
    29 H29     -3.1952 -11.4467 -15.4386   H         1 RES1   0.0000
    30 H30     -4.5475 -11.2897 -14.2944   H         1 RES1   0.0000
    31 C31     -3.1624  -9.6563 -14.2635   C.3       1 RES1   0.0000
    32 H32     -3.6663  -9.0913 -15.0463   H         1 RES1   0.0000
    33 H33     -3.5204  -9.3259 -13.2895   H         1 RES1   0.0000
    34 C34     -0.9301 -10.2744 -13.3301   C.3       1 RES1   0.0000
    35 H35     -1.2367  -9.9761 -12.3286   H         1 RES1   0.0000
    36 H36      0.1434 -10.1278 -13.4398   H         1 RES1   0.0000
    37 N37     -2.7297 -11.9537 -13.4369   N.4       1 RES1   1.0000
    38 H38     -3.0385 -11.6963 -12.5049   H         1 RES1   0.0000
    39 H39     -2.9322 -12.9346 -13.6016   H         1 RES1   0.0000
    40 N40     -1.1072  -4.7783 -11.2966   N.ar      1 RES1   0.0000
    41 C41     -3.3226  -3.2287 -11.2491   C.ar      1 RES1   0.0000
    42 H42     -4.2112  -2.6061 -11.2397   H         1 RES1   0.0000
    43 N43     -0.4495  -3.7510  -9.3549   N.pl3     1 RES1   0.0000
    44 H44      0.3533  -4.3801  -9.3648   H         1 RES1   0.0000
    45 C45     -3.1749  -4.1373 -12.2777   C.ar      1 RES1   0.0000
    46 H46     -3.9235  -4.2406 -13.0562   H         1 RES1   0.0000
    47 C47     -1.3567  -3.8727 -10.3371   C.ar      1 RES1   0.0000
    48 N48     -2.4311  -3.0737 -10.2618   N.ar      1 RES1   0.0000
    49 C49     -0.5722  -2.8156  -8.2371   C.3       1 RES1   0.0000
    50 H50     -1.6400  -2.6833  -8.0038   H         1 RES1   0.0000
    51 C51      0.0250  -1.4580  -8.5513   C.ar      1 RES1   0.0000
    52 C52      0.1140  -3.4448  -7.0302   C.3       1 RES1   0.0000
    53 H53     -0.2324  -2.9862  -6.1064   H         1 RES1   0.0000
    54 H54     -0.0949  -4.5113  -6.9781   H         1 RES1   0.0000
    55 H55      1.1924  -3.3135  -7.0897   H         1 RES1   0.0000
    56 C56      1.1257   1.0385  -9.1136   C.ar      1 RES1   0.0000
    57 H57      1.5550   2.0105  -9.3329   H         1 RES1   0.0000
    58 C58      0.5478  -0.6678  -7.5378   C.ar      1 RES1   0.0000
    59 H59      0.5271  -1.0264  -6.5140   H         1 RES1   0.0000
    60 C60      0.0608  -0.9749  -9.8522   C.ar      1 RES1   0.0000
    61 H61     -0.3436  -1.5742 -10.6611   H         1 RES1   0.0000
    62 C62      0.6085   0.2661 -10.1302   C.ar      1 RES1   0.0000
    63 H63      0.6302   0.6305 -11.1519   H         1 RES1   0.0000
    64 C64      1.0957   0.5725  -7.8178   C.ar      1 RES1   0.0000
    65 H65      1.5023   1.1782  -7.0147   H         1 RES1   0.0000
@<TRIPOS>BOND
     1     1     5   ar
     2     1     6   ar
     3     1     2    1
     4     3     8   ar
     5     3     9   ar
     6     3     4    1
     7     5     9   ar
     8     5    11    1
     9     6     8   ar
    10     6     7    1
    11     8    12    1
    12     9    10    1
    13    11    20    2
    14    11    23    1
    15    13    14    1
    16    13    23   am
    17    13    24    1
    18    14    31    1
    19    14    34    1
    20    14    15    1
    21    16    24    1
    22    16    17    1
    23    16    18    1
    24    16    19    1
    25    20    21    1
    26    20    24    1
    27    21    40   ar
    28    21    45   ar
    29    22    23    2
    30    25    34    1
    31    25    37    1
    32    25    26    1
    33    25    27    1
    34    28    31    1
    35    28    37    1
    36    28    29    1
    37    28    30    1
    38    31    32    1
    39    31    33    1
    40    34    35    1
    41    34    36    1
    42    37    38    1
    43    37    39    1
    44    40    47   ar
    45    41    45   ar
    46    41    48   ar
    47    41    42    1
    48    43    47    1
    49    43    49    1
    50    43    44    1
    51    45    46    1
    52    47    48   ar
    53    49    51    1
    54    49    52    1
    55    49    50    1
    56    51    58   ar
    57    51    60   ar
    58    52    53    1
    59    52    54    1
    60    52    55    1
    61    56    62   ar
    62    56    64   ar
    63    56    57    1
    64    58    64   ar
    65    58    59    1
    66    60    62   ar
    67    60    61    1
    68    62    63    1
    69    64    65    1
@<TRIPOS>SUBSTRUCTURE
     1 RES1        1 GROUP             0 ****  ****    0  
@<TRIPOS>MOLECULE
LIGAND_00211
    65    69     1     0     0
SMALL
USER_CHARGES
****
Generated from the CSD

@<TRIPOS>ATOM
     1 C1       1.4281  -5.6685 -11.3525   C.ar      1 RES1   0.0000
     2 H2       1.7130  -6.7144 -11.3168   H         1 RES1   0.0000
     3 C3       0.7473  -2.9927 -11.4447   C.ar      1 RES1   0.0000
     4 H4       0.4907  -1.9391 -11.4796   H         1 RES1   0.0000
     5 C5       0.4950  -5.2453 -12.2944   C.ar      1 RES1   0.0000
     6 C6       2.0058  -4.7807 -10.4623   C.ar      1 RES1   0.0000
     7 H7       2.7250  -5.1217  -9.7252   H         1 RES1   0.0000
     8 C8       1.6504  -3.4632 -10.5347   C.ar      1 RES1   0.0000
     9 C9       0.1671  -3.8927 -12.3198   C.ar      1 RES1   0.0000
    10 H10     -0.5614  -3.5308 -13.0364   H         1 RES1   0.0000
    11 C11     -0.1364  -6.1946 -13.2677   C.2       1 RES1   0.0000
    12 F12      2.2187  -2.5834  -9.6658   F         1 RES1   0.0000
    13 N13     -1.2518  -7.9333 -14.1561   N.am      1 RES1   0.0000
    14 C14     -1.5368  -9.3995 -14.3156   C.3       1 RES1   0.0000
    15 H15     -1.2570  -9.6900 -15.3272   H         1 RES1   0.0000
    16 C16     -1.4175  -7.1022 -16.4194   C.3       1 RES1   0.0000
    17 H17     -0.7780  -7.0718 -17.2991   H         1 RES1   0.0000
    18 H18     -2.0977  -7.9448 -16.5242   H         1 RES1   0.0000
    19 H19     -2.0089  -6.1892 -16.3978   H         1 RES1   0.0000
    20 C20     -0.0279  -6.1202 -14.6126   C.2       1 RES1   0.0000
    21 C21      0.6269  -5.0726 -15.4374   C.ar      1 RES1   0.0000
    22 O22     -1.1751  -7.8698 -11.8604   O.2       1 RES1   0.0000
    23 C23     -0.9023  -7.3660 -12.9421   C.2       1 RES1   0.0000
    24 N24     -0.6173  -7.2286 -15.2007   N.3       1 RES1   0.0000
    25 C25     -0.9543 -11.7075 -13.5028   C.3       1 RES1   0.0000
    26 H26     -0.3765 -12.2602 -12.7634   H         1 RES1   0.0000
    27 H27     -0.6551 -12.0176 -14.5029   H         1 RES1   0.0000
    28 C28     -3.2657 -11.2208 -14.2594   C.3       1 RES1   0.0000
    29 H29     -3.0347 -11.5288 -15.2781   H         1 RES1   0.0000
    30 H30     -4.3130 -11.4289 -14.0459   H         1 RES1   0.0000
    31 C31     -3.0152  -9.7267 -14.1208   C.3       1 RES1   0.0000
    32 H32     -3.5993  -9.1965 -14.8715   H         1 RES1   0.0000
    33 H33     -3.3233  -9.4047 -13.1271   H         1 RES1   0.0000
    34 C34     -0.6961 -10.2201 -13.3367   C.3       1 RES1   0.0000
    35 H35     -0.9494  -9.9272 -12.3189   H         1 RES1   0.0000
    36 H36      0.3586 -10.0200 -13.5202   H         1 RES1   0.0000
    37 N37     -2.4097 -11.9901 -13.3091   N.4       1 RES1   1.0000
    38 H38     -2.6678 -11.7389 -12.3602   H         1 RES1   0.0000
    39 H39     -2.5719 -12.9817 -13.4526   H         1 RES1   0.0000
    40 N40      0.1358  -3.8279 -15.3316   N.ar      1 RES1   0.0000
    41 C41      2.2001  -4.2991 -17.0134   C.ar      1 RES1   0.0000
    42 H42      3.0322  -4.4944 -17.6819   H         1 RES1   0.0000
    43 N43      0.1990  -1.6362 -16.0032   N.pl3     1 RES1   0.0000
    44 H44     -0.6122  -1.4913 -15.4020   H         1 RES1   0.0000
    45 C45      1.6854  -5.3550 -16.2885   C.ar      1 RES1   0.0000
    46 H46      2.0881  -6.3581 -16.3821   H         1 RES1   0.0000
    47 C47      0.7029  -2.8775 -16.0920   C.ar      1 RES1   0.0000
    48 N48      1.7290  -3.0476 -16.9385   N.ar      1 RES1   0.0000
    49 C49      0.7009  -0.4915 -16.7628   C.3       1 RES1   0.0000
    50 H50      1.0621  -0.8479 -17.7400   H         1 RES1   0.0000
    51 C51      1.8403   0.2164 -16.0561   C.ar      1 RES1   0.0000
    52 C52     -0.4684   0.4583 -16.9945   C.3       1 RES1   0.0000
    53 H53     -0.1573   1.3168 -17.5860   H         1 RES1   0.0000
    54 H54     -1.2760  -0.0431 -17.5238   H         1 RES1   0.0000
    55 H55     -0.8599   0.8239 -16.0475   H         1 RES1   0.0000
    56 C56      3.9244   1.5198 -14.7454   C.ar      1 RES1   0.0000
    57 H57      4.7364   2.0268 -14.2348   H         1 RES1   0.0000
    58 C58      1.6519   0.7702 -14.7980   C.ar      1 RES1   0.0000
    59 H59      0.6811   0.6950 -14.3193   H         1 RES1   0.0000
    60 C60      3.0908   0.3288 -16.6481   C.ar      1 RES1   0.0000
    61 H61      3.2614  -0.0948 -17.6322   H         1 RES1   0.0000
    62 C62      4.1259   0.9767 -15.9952   C.ar      1 RES1   0.0000
    63 H63      5.0982   1.0564 -16.4699   H         1 RES1   0.0000
    64 C64      2.6882   1.4169 -14.1464   C.ar      1 RES1   0.0000
    65 H65      2.5260   1.8434 -13.1621   H         1 RES1   0.0000
@<TRIPOS>BOND
     1     1     5   ar
     2     1     6   ar
     3     1     2    1
     4     3     8   ar
     5     3     9   ar
     6     3     4    1
     7     5     9   ar
     8     5    11    1
     9     6     8   ar
    10     6     7    1
    11     8    12    1
    12     9    10    1
    13    11    20    2
    14    11    23    1
    15    13    14    1
    16    13    23   am
    17    13    24    1
    18    14    31    1
    19    14    34    1
    20    14    15    1
    21    16    24    1
    22    16    17    1
    23    16    18    1
    24    16    19    1
    25    20    21    1
    26    20    24    1
    27    21    40   ar
    28    21    45   ar
    29    22    23    2
    30    25    34    1
    31    25    37    1
    32    25    26    1
    33    25    27    1
    34    28    31    1
    35    28    37    1
    36    28    29    1
    37    28    30    1
    38    31    32    1
    39    31    33    1
    40    34    35    1
    41    34    36    1
    42    37    38    1
    43    37    39    1
    44    40    47   ar
    45    41    45   ar
    46    41    48   ar
    47    41    42    1
    48    43    47    1
    49    43    49    1
    50    43    44    1
    51    45    46    1
    52    47    48   ar
    53    49    51    1
    54    49    52    1
    55    49    50    1
    56    51    58   ar
    57    51    60   ar
    58    52    53    1
    59    52    54    1
    60    52    55    1
    61    56    62   ar
    62    56    64   ar
    63    56    57    1
    64    58    64   ar
    65    58    59    1
    66    60    62   ar
    67    60    61    1
    68    62    63    1
    69    64    65    1
@<TRIPOS>SUBSTRUCTURE
     1 RES1        1 GROUP             0 ****  ****    0  
@<TRIPOS>MOLECULE
LIGAND_00212
    65    69     1     0     0
SMALL
USER_CHARGES
****
Generated from the CSD

@<TRIPOS>ATOM
     1 C1       1.8363  -5.0308 -12.2162   C.ar      1 RES1   0.0000
     2 H2       2.4918  -5.5879 -12.8768   H         1 RES1   0.0000
     3 C3       0.1881  -3.5725 -10.5463   C.ar      1 RES1   0.0000
     4 H4      -0.4529  -2.9906  -9.8924   H         1 RES1   0.0000
     5 C5       0.4604  -5.2241 -12.2950   C.ar      1 RES1   0.0000
     6 C6       2.3872  -4.1369 -11.3151   C.ar      1 RES1   0.0000
     7 H7       3.4617  -4.0002 -11.2544   H         1 RES1   0.0000
     8 C8       1.5456  -3.4286 -10.5045   C.ar      1 RES1   0.0000
     9 C9      -0.3489  -4.4790 -11.4419   C.ar      1 RES1   0.0000
    10 H10     -1.4245  -4.6103 -11.4724   H         1 RES1   0.0000
    11 C11     -0.1512  -6.1860 -13.2685   C.2       1 RES1   0.0000
    12 F12      2.0801  -2.5436  -9.6196   F         1 RES1   0.0000
    13 N13     -1.2406  -7.9410 -14.1570   N.am      1 RES1   0.0000
    14 C14     -1.5106  -9.4109 -14.3092   C.3       1 RES1   0.0000
    15 H15     -1.2165  -9.7060 -15.3154   H         1 RES1   0.0000
    16 C16     -1.3876  -7.1276 -16.4280   C.3       1 RES1   0.0000
    17 H17     -0.7384  -7.0978 -17.3006   H         1 RES1   0.0000
    18 H18     -2.0590  -7.9772 -16.5346   H         1 RES1   0.0000
    19 H19     -1.9875  -6.2200 -16.4198   H         1 RES1   0.0000
    20 C20     -0.0279  -6.1202 -14.6126   C.2       1 RES1   0.0000
    21 C21      0.6269  -5.0726 -15.4374   C.ar      1 RES1   0.0000
    22 O22     -1.1910  -7.8605 -11.8611   O.2       1 RES1   0.0000
    23 C23     -0.9103  -7.3619 -12.9432   C.2       1 RES1   0.0000
    24 N24     -0.6005  -7.2381 -15.1994   N.3       1 RES1   0.0000
    25 C25     -0.9166 -11.7076 -13.4731   C.3       1 RES1   0.0000
    26 H26     -0.3425 -12.2497 -12.7231   H         1 RES1   0.0000
    27 H27     -0.6032 -12.0221 -14.4675   H         1 RES1   0.0000
    28 C28     -3.2234 -11.2473 -14.2597   C.3       1 RES1   0.0000
    29 H29     -2.9780 -11.5605 -15.2734   H         1 RES1   0.0000
    30 H30     -4.2713 -11.4635 -14.0566   H         1 RES1   0.0000
    31 C31     -2.9881  -9.7501 -14.1290   C.3       1 RES1   0.0000
    32 H32     -3.5682  -9.2306 -14.8902   H         1 RES1   0.0000
    33 H33     -3.3105  -9.4238 -13.1413   H         1 RES1   0.0000
    34 C34     -0.6738 -10.2168 -13.3148   C.3       1 RES1   0.0000
    35 H35     -0.9415  -9.9189 -12.3021   H         1 RES1   0.0000
    36 H36      0.3810 -10.0085 -13.4876   H         1 RES1   0.0000
    37 N37     -2.3716 -12.0020 -13.2941   N.4       1 RES1   1.0000
    38 H38     -2.6429 -11.7464 -12.3500   H         1 RES1   0.0000
    39 H39     -2.5232 -12.9961 -13.4322   H         1 RES1   0.0000
    40 N40      0.1358  -3.8279 -15.3316   N.ar      1 RES1   0.0000
    41 C41      2.2001  -4.2991 -17.0134   C.ar      1 RES1   0.0000
    42 H42      3.0322  -4.4944 -17.6819   H         1 RES1   0.0000
    43 N43      0.1990  -1.6362 -16.0032   N.pl3     1 RES1   0.0000
    44 H44     -0.6122  -1.4913 -15.4020   H         1 RES1   0.0000
    45 C45      1.6854  -5.3550 -16.2885   C.ar      1 RES1   0.0000
    46 H46      2.0881  -6.3581 -16.3821   H         1 RES1   0.0000
    47 C47      0.7029  -2.8775 -16.0920   C.ar      1 RES1   0.0000
    48 N48      1.7290  -3.0476 -16.9385   N.ar      1 RES1   0.0000
    49 C49      0.7010  -0.4915 -16.7628   C.3       1 RES1   0.0000
    50 H50      1.0621  -0.8479 -17.7400   H         1 RES1   0.0000
    51 C51      1.8402   0.2164 -16.0561   C.ar      1 RES1   0.0000
    52 C52     -0.4684   0.4583 -16.9945   C.3       1 RES1   0.0000
    53 H53     -0.1573   1.3168 -17.5861   H         1 RES1   0.0000
    54 H54     -1.2760  -0.0431 -17.5238   H         1 RES1   0.0000
    55 H55     -0.8599   0.8239 -16.0475   H         1 RES1   0.0000
    56 C56      3.9243   1.5198 -14.7454   C.ar      1 RES1   0.0000
    57 H57      4.7363   2.0268 -14.2347   H         1 RES1   0.0000
    58 C58      1.6519   0.7702 -14.7980   C.ar      1 RES1   0.0000
    59 H59      0.6811   0.6950 -14.3193   H         1 RES1   0.0000
    60 C60      3.0908   0.3288 -16.6480   C.ar      1 RES1   0.0000
    61 H61      3.2614  -0.0948 -17.6322   H         1 RES1   0.0000
    62 C62      4.1259   0.9767 -15.9952   C.ar      1 RES1   0.0000
    63 H63      5.0982   1.0564 -16.4698   H         1 RES1   0.0000
    64 C64      2.6882   1.4170 -14.1464   C.ar      1 RES1   0.0000
    65 H65      2.5260   1.8434 -13.1621   H         1 RES1   0.0000
@<TRIPOS>BOND
     1     1     5   ar
     2     1     6   ar
     3     1     2    1
     4     3     8   ar
     5     3     9   ar
     6     3     4    1
     7     5     9   ar
     8     5    11    1
     9     6     8   ar
    10     6     7    1
    11     8    12    1
    12     9    10    1
    13    11    20    2
    14    11    23    1
    15    13    14    1
    16    13    23   am
    17    13    24    1
    18    14    31    1
    19    14    34    1
    20    14    15    1
    21    16    24    1
    22    16    17    1
    23    16    18    1
    24    16    19    1
    25    20    21    1
    26    20    24    1
    27    21    40   ar
    28    21    45   ar
    29    22    23    2
    30    25    34    1
    31    25    37    1
    32    25    26    1
    33    25    27    1
    34    28    31    1
    35    28    37    1
    36    28    29    1
    37    28    30    1
    38    31    32    1
    39    31    33    1
    40    34    35    1
    41    34    36    1
    42    37    38    1
    43    37    39    1
    44    40    47   ar
    45    41    45   ar
    46    41    48   ar
    47    41    42    1
    48    43    47    1
    49    43    49    1
    50    43    44    1
    51    45    46    1
    52    47    48   ar
    53    49    51    1
    54    49    52    1
    55    49    50    1
    56    51    58   ar
    57    51    60   ar
    58    52    53    1
    59    52    54    1
    60    52    55    1
    61    56    62   ar
    62    56    64   ar
    63    56    57    1
    64    58    64   ar
    65    58    59    1
    66    60    62   ar
    67    60    61    1
    68    62    63    1
    69    64    65    1
@<TRIPOS>SUBSTRUCTURE
     1 RES1        1 GROUP             0 ****  ****    0  
@<TRIPOS>MOLECULE
LIGAND_00213
    65    69     1     0     0
SMALL
USER_CHARGES
****
Generated from the CSD

@<TRIPOS>ATOM
     1 C1       1.3217  -5.6016 -11.3081   C.ar      1 RES1   0.0000
     2 H2       1.6059  -6.6459 -11.2353   H         1 RES1   0.0000
     3 C3       0.6429  -2.9302 -11.4931   C.ar      1 RES1   0.0000
     4 H4       0.3871  -1.8782 -11.5641   H         1 RES1   0.0000
     5 C5       0.4261  -5.2035 -12.2960   C.ar      1 RES1   0.0000
     6 C6       1.8633  -4.6911 -10.4181   C.ar      1 RES1   0.0000
     7 H7       2.5533  -5.0125  -9.6451   H         1 RES1   0.0000
     8 C8       1.5100  -3.3764 -10.5370   C.ar      1 RES1   0.0000
     9 C9       0.0983  -3.8525 -12.3677   C.ar      1 RES1   0.0000
    10 H10     -0.6017  -3.5097 -13.1211   H         1 RES1   0.0000
    11 C11     -0.1659  -6.1777 -13.2696   C.2       1 RES1   0.0000
    12 F12      2.0430  -2.4744  -9.6685   F         1 RES1   0.0000
    13 N13     -1.2295  -7.9486 -14.1578   N.am      1 RES1   0.0000
    14 C14     -1.4847  -9.4218 -14.3025   C.3       1 RES1   0.0000
    15 H15     -1.1763  -9.7214 -15.3031   H         1 RES1   0.0000
    16 C16     -1.3580  -7.1525 -16.4360   C.3       1 RES1   0.0000
    17 H17     -0.6986  -7.0867 -17.2990   H         1 RES1   0.0000
    18 H18     -1.9941  -8.0262 -16.5620   H         1 RES1   0.0000
    19 H19     -1.9929  -6.2690 -16.4256   H         1 RES1   0.0000
    20 C20     -0.0279  -6.1202 -14.6126   C.2       1 RES1   0.0000
    21 C21      0.6269  -5.0726 -15.4374   C.ar      1 RES1   0.0000
    22 O22     -1.2066  -7.8514 -11.8621   O.2       1 RES1   0.0000
    23 C23     -0.9181  -7.3580 -12.9445   C.2       1 RES1   0.0000
    24 N24     -0.5838  -7.2473 -15.1979   N.3       1 RES1   0.0000
    25 C25     -0.8802 -11.7072 -13.4432   C.3       1 RES1   0.0000
    26 H26     -0.3100 -12.2388 -12.6827   H         1 RES1   0.0000
    27 H27     -0.5524 -12.0259 -14.4316   H         1 RES1   0.0000
    28 C28     -3.1817 -11.2731 -14.2596   C.3       1 RES1   0.0000
    29 H29     -2.9217 -11.5912 -15.2681   H         1 RES1   0.0000
    30 H30     -4.2299 -11.4971 -14.0671   H         1 RES1   0.0000
    31 C31     -2.9611  -9.7729 -14.1369   C.3       1 RES1   0.0000
    32 H32     -3.5369  -9.2640 -14.9085   H         1 RES1   0.0000
    33 H33     -3.2979  -9.4425 -13.1554   H         1 RES1   0.0000
    34 C34     -0.6524 -10.2131 -13.2928   C.3       1 RES1   0.0000
    35 H35     -0.9345  -9.9105 -12.2854   H         1 RES1   0.0000
    36 H36      0.4025  -9.9967 -13.4549   H         1 RES1   0.0000
    37 N37     -2.3345 -12.0133 -13.2788   N.4       1 RES1   1.0000
    38 H38     -2.6190 -11.7534 -12.3398   H         1 RES1   0.0000
    39 H39     -2.4757 -13.0096 -13.4116   H         1 RES1   0.0000
    40 N40      1.9341  -4.8618 -15.2172   N.ar      1 RES1   0.0000
    41 C41      0.6476  -3.3780 -17.0759   C.ar      1 RES1   0.0000
    42 H42      0.1263  -2.7903 -17.8244   H         1 RES1   0.0000
    43 N43      3.8333  -3.6727 -15.7046   N.pl3     1 RES1   0.0000
    44 H44      4.2861  -4.2077 -14.9636   H         1 RES1   0.0000
    45 C45     -0.0686  -4.3328 -16.3825   C.ar      1 RES1   0.0000
    46 H46     -1.1255  -4.4947 -16.5666   H         1 RES1   0.0000
    47 C47      2.5308  -3.8993 -15.9388   C.ar      1 RES1   0.0000
    48 N48      1.9495  -3.1358 -16.8754   N.ar      1 RES1   0.0000
    49 C49      4.6278  -2.6622 -16.4025   C.3       1 RES1   0.0000
    50 H50      3.9769  -1.8082 -16.6458   H         1 RES1   0.0000
    51 C51      5.2329  -3.1897 -17.6886   C.ar      1 RES1   0.0000
    52 C52      5.7149  -2.1868 -15.4456   C.3       1 RES1   0.0000
    53 H53      6.3191  -1.4069 -15.9043   H         1 RES1   0.0000
    54 H54      5.2794  -1.7853 -14.5330   H         1 RES1   0.0000
    55 H55      6.3734  -3.0090 -15.1734   H         1 RES1   0.0000
    56 C56      6.3523  -4.1699 -20.0438   C.ar      1 RES1   0.0000
    57 H57      6.7876  -4.5520 -20.9612   H         1 RES1   0.0000
    58 C58      6.1032  -4.2700 -17.6653   C.ar      1 RES1   0.0000
    59 H59      6.3511  -4.7381 -16.7184   H         1 RES1   0.0000
    60 C60      4.9345  -2.6067 -18.9125   C.ar      1 RES1   0.0000
    61 H61      4.2579  -1.7597 -18.9555   H         1 RES1   0.0000
    62 C62      5.4914  -3.0952 -20.0824   C.ar      1 RES1   0.0000
    63 H63      5.2485  -2.6299 -21.0319   H         1 RES1   0.0000
    64 C64      6.6585  -4.7576 -18.8361   C.ar      1 RES1   0.0000
    65 H65      7.3361  -5.6042 -18.8020   H         1 RES1   0.0000
@<TRIPOS>BOND
     1     1     5   ar
     2     1     6   ar
     3     1     2    1
     4     3     8   ar
     5     3     9   ar
     6     3     4    1
     7     5     9   ar
     8     5    11    1
     9     6     8   ar
    10     6     7    1
    11     8    12    1
    12     9    10    1
    13    11    20    2
    14    11    23    1
    15    13    14    1
    16    13    23   am
    17    13    24    1
    18    14    31    1
    19    14    34    1
    20    14    15    1
    21    16    24    1
    22    16    17    1
    23    16    18    1
    24    16    19    1
    25    20    21    1
    26    20    24    1
    27    21    40   ar
    28    21    45   ar
    29    22    23    2
    30    25    34    1
    31    25    37    1
    32    25    26    1
    33    25    27    1
    34    28    31    1
    35    28    37    1
    36    28    29    1
    37    28    30    1
    38    31    32    1
    39    31    33    1
    40    34    35    1
    41    34    36    1
    42    37    38    1
    43    37    39    1
    44    40    47   ar
    45    41    45   ar
    46    41    48   ar
    47    41    42    1
    48    43    47    1
    49    43    49    1
    50    43    44    1
    51    45    46    1
    52    47    48   ar
    53    49    51    1
    54    49    52    1
    55    49    50    1
    56    51    58   ar
    57    51    60   ar
    58    52    53    1
    59    52    54    1
    60    52    55    1
    61    56    62   ar
    62    56    64   ar
    63    56    57    1
    64    58    64   ar
    65    58    59    1
    66    60    62   ar
    67    60    61    1
    68    62    63    1
    69    64    65    1
@<TRIPOS>SUBSTRUCTURE
     1 RES1        1 GROUP             0 ****  ****    0  
@<TRIPOS>MOLECULE
LIGAND_00214
    65    69     1     0     0
SMALL
USER_CHARGES
****
Generated from the CSD

@<TRIPOS>ATOM
     1 C1       1.7099  -4.9677 -12.1235   C.ar      1 RES1   0.0000
     2 H2       2.4090  -5.5603 -12.7036   H         1 RES1   0.0000
     3 C3      -0.0480  -3.4198 -10.6588   C.ar      1 RES1   0.0000
     4 H4      -0.7319  -2.8028 -10.0854   H         1 RES1   0.0000
     5 C5       0.3423  -5.1549 -12.3009   C.ar      1 RES1   0.0000
     6 C6       2.1983  -4.0356 -11.2251   C.ar      1 RES1   0.0000
     7 H7       3.2661  -3.9036 -11.0867   H         1 RES1   0.0000
     8 C8       1.3035  -3.2834 -10.5173   C.ar      1 RES1   0.0000
     9 C9      -0.5231  -4.3643 -11.5500   C.ar      1 RES1   0.0000
    10 H10     -1.5944  -4.4894 -11.6587   H         1 RES1   0.0000
    11 C11     -0.2016  -6.1580 -13.2730   C.2       1 RES1   0.0000
    12 F12      1.7767  -2.3609  -9.6359   F         1 RES1   0.0000
    13 N13     -1.2023  -7.9664 -14.1589   N.am      1 RES1   0.0000
    14 C14     -1.4218  -9.4471 -14.2848   C.3       1 RES1   0.0000
    15 H15     -1.0801  -9.7567 -15.2714   H         1 RES1   0.0000
    16 C16     -1.2848  -7.2118 -16.4533   C.3       1 RES1   0.0000
    17 H17     -0.6031  -7.1825 -17.3008   H         1 RES1   0.0000
    18 H18     -1.9257  -8.0840 -16.5644   H         1 RES1   0.0000
    19 H19     -1.9115  -6.3232 -16.4906   H         1 RES1   0.0000
    20 C20     -0.0279  -6.1202 -14.6126   C.2       1 RES1   0.0000
    21 C21      0.6269  -5.0726 -15.4374   C.ar      1 RES1   0.0000
    22 O22     -1.2449  -7.8302 -11.8655   O.2       1 RES1   0.0000
    23 C23     -0.9372  -7.3489 -12.9480   C.2       1 RES1   0.0000
    24 N24     -0.5433  -7.2688 -15.1931   N.3       1 RES1   0.0000
    25 C25     -0.7922 -11.7040 -13.3700   C.3       1 RES1   0.0000
    26 H26     -0.2316 -12.2102 -12.5855   H         1 RES1   0.0000
    27 H27     -0.4310 -12.0320 -14.3436   H         1 RES1   0.0000
    28 C28     -3.0794 -11.3341 -14.2553   C.3       1 RES1   0.0000
    29 H29     -2.7855 -11.6633 -15.2508   H         1 RES1   0.0000
    30 H30     -4.1274 -11.5777 -14.0871   H         1 RES1   0.0000
    31 C31     -2.8944  -9.8276 -14.1527   C.3       1 RES1   0.0000
    32 H32     -3.4598  -9.3444 -14.9482   H         1 RES1   0.0000
    33 H33     -3.2647  -9.4882 -13.1865   H         1 RES1   0.0000
    34 C34     -0.6006 -10.2030 -13.2396   C.3       1 RES1   0.0000
    35 H35     -0.9163  -9.8898 -12.2455   H         1 RES1   0.0000
    36 H36      0.4535  -9.9663 -13.3771   H         1 RES1   0.0000
    37 N37     -2.2435 -12.0390 -13.2394   N.4       1 RES1   1.0000
    38 H38     -2.5589 -11.7697 -12.3130   H         1 RES1   0.0000
    39 H39     -2.3597 -13.0403 -13.3586   H         1 RES1   0.0000
    40 N40     -0.1490  -4.4335 -16.3269   N.ar      1 RES1   0.0000
    41 C41      2.4700  -3.7855 -16.1469   C.ar      1 RES1   0.0000
    42 H42      3.5204  -3.5265 -16.0650   H         1 RES1   0.0000
    43 N43     -0.3324  -2.8774 -18.0012   N.pl3     1 RES1   0.0000
    44 H44     -1.3046  -3.1733 -18.0878   H         1 RES1   0.0000
    45 C45      1.9748  -4.7687 -15.3142   C.ar      1 RES1   0.0000
    46 H46      2.6104  -5.2808 -14.5994   H         1 RES1   0.0000
    47 C47      0.4377  -3.5025 -17.0963   C.ar      1 RES1   0.0000
    48 N48      1.7264  -3.1344 -17.0507   N.ar      1 RES1   0.0000
    49 C49      0.1517  -1.8421 -18.9141   C.3       1 RES1   0.0000
    50 H50      1.1998  -2.0608 -19.1711   H         1 RES1   0.0000
    51 C51      0.0835  -0.4558 -18.3042   C.ar      1 RES1   0.0000
    52 C52     -0.6858  -1.9183 -20.1853   C.3       1 RES1   0.0000
    53 H53     -0.3458  -1.1876 -20.9162   H         1 RES1   0.0000
    54 H54     -0.6167  -2.9060 -20.6364   H         1 RES1   0.0000
    55 H55     -1.7328  -1.7177 -19.9681   H         1 RES1   0.0000
    56 C56     -0.0362   2.0975 -17.1967   C.ar      1 RES1   0.0000
    57 H57     -0.0835   3.0919 -16.7654   H         1 RES1   0.0000
    58 C58      0.5021   0.6521 -19.0270   C.ar      1 RES1   0.0000
    59 H59      0.8809   0.5222 -20.0353   H         1 RES1   0.0000
    60 C60     -0.3942  -0.2631 -17.0152   C.ar      1 RES1   0.0000
    61 H61     -0.7255  -1.1145 -16.4301   H         1 RES1   0.0000
    62 C62     -0.4534   1.0067 -16.4661   C.ar      1 RES1   0.0000
    63 H63     -0.8297   1.1423 -15.4576   H         1 RES1   0.0000
    64 C64      0.4414   1.9210 -18.4766   C.ar      1 RES1   0.0000
    65 H65      0.7707   2.7779 -19.0549   H         1 RES1   0.0000
@<TRIPOS>BOND
     1     1     5   ar
     2     1     6   ar
     3     1     2    1
     4     3     8   ar
     5     3     9   ar
     6     3     4    1
     7     5     9   ar
     8     5    11    1
     9     6     8   ar
    10     6     7    1
    11     8    12    1
    12     9    10    1
    13    11    20    2
    14    11    23    1
    15    13    14    1
    16    13    23   am
    17    13    24    1
    18    14    31    1
    19    14    34    1
    20    14    15    1
    21    16    24    1
    22    16    17    1
    23    16    18    1
    24    16    19    1
    25    20    21    1
    26    20    24    1
    27    21    40   ar
    28    21    45   ar
    29    22    23    2
    30    25    34    1
    31    25    37    1
    32    25    26    1
    33    25    27    1
    34    28    31    1
    35    28    37    1
    36    28    29    1
    37    28    30    1
    38    31    32    1
    39    31    33    1
    40    34    35    1
    41    34    36    1
    42    37    38    1
    43    37    39    1
    44    40    47   ar
    45    41    45   ar
    46    41    48   ar
    47    41    42    1
    48    43    47    1
    49    43    49    1
    50    43    44    1
    51    45    46    1
    52    47    48   ar
    53    49    51    1
    54    49    52    1
    55    49    50    1
    56    51    58   ar
    57    51    60   ar
    58    52    53    1
    59    52    54    1
    60    52    55    1
    61    56    62   ar
    62    56    64   ar
    63    56    57    1
    64    58    64   ar
    65    58    59    1
    66    60    62   ar
    67    60    61    1
    68    62    63    1
    69    64    65    1
@<TRIPOS>SUBSTRUCTURE
     1 RES1        1 GROUP             0 ****  ****    0  
@<TRIPOS>MOLECULE
LIGAND_00215
    65    69     1     0     0
SMALL
USER_CHARGES
****
Generated from the CSD

@<TRIPOS>ATOM
     1 C1       1.7099  -4.9677 -12.1235   C.ar      1 RES1   0.0000
     2 H2       2.4090  -5.5603 -12.7036   H         1 RES1   0.0000
     3 C3      -0.0480  -3.4198 -10.6588   C.ar      1 RES1   0.0000
     4 H4      -0.7319  -2.8028 -10.0854   H         1 RES1   0.0000
     5 C5       0.3423  -5.1549 -12.3009   C.ar      1 RES1   0.0000
     6 C6       2.1983  -4.0356 -11.2251   C.ar      1 RES1   0.0000
     7 H7       3.2661  -3.9036 -11.0867   H         1 RES1   0.0000
     8 C8       1.3035  -3.2834 -10.5173   C.ar      1 RES1   0.0000
     9 C9      -0.5231  -4.3643 -11.5500   C.ar      1 RES1   0.0000
    10 H10     -1.5944  -4.4894 -11.6587   H         1 RES1   0.0000
    11 C11     -0.2016  -6.1580 -13.2730   C.2       1 RES1   0.0000
    12 F12      1.7767  -2.3609  -9.6359   F         1 RES1   0.0000
    13 N13     -1.2023  -7.9664 -14.1589   N.am      1 RES1   0.0000
    14 C14     -1.4218  -9.4471 -14.2848   C.3       1 RES1   0.0000
    15 H15     -1.0801  -9.7567 -15.2714   H         1 RES1   0.0000
    16 C16     -1.2848  -7.2118 -16.4533   C.3       1 RES1   0.0000
    17 H17     -0.6031  -7.1825 -17.3008   H         1 RES1   0.0000
    18 H18     -1.9257  -8.0840 -16.5644   H         1 RES1   0.0000
    19 H19     -1.9115  -6.3232 -16.4906   H         1 RES1   0.0000
    20 C20     -0.0279  -6.1202 -14.6126   C.2       1 RES1   0.0000
    21 C21      0.6269  -5.0726 -15.4374   C.ar      1 RES1   0.0000
    22 O22     -1.2449  -7.8302 -11.8655   O.2       1 RES1   0.0000
    23 C23     -0.9372  -7.3489 -12.9480   C.2       1 RES1   0.0000
    24 N24     -0.5433  -7.2688 -15.1931   N.3       1 RES1   0.0000
    25 C25     -0.7922 -11.7040 -13.3700   C.3       1 RES1   0.0000
    26 H26     -0.2316 -12.2102 -12.5855   H         1 RES1   0.0000
    27 H27     -0.4310 -12.0320 -14.3436   H         1 RES1   0.0000
    28 C28     -3.0794 -11.3341 -14.2553   C.3       1 RES1   0.0000
    29 H29     -2.7855 -11.6633 -15.2508   H         1 RES1   0.0000
    30 H30     -4.1274 -11.5777 -14.0871   H         1 RES1   0.0000
    31 C31     -2.8944  -9.8276 -14.1527   C.3       1 RES1   0.0000
    32 H32     -3.4598  -9.3444 -14.9482   H         1 RES1   0.0000
    33 H33     -3.2647  -9.4882 -13.1865   H         1 RES1   0.0000
    34 C34     -0.6006 -10.2030 -13.2396   C.3       1 RES1   0.0000
    35 H35     -0.9163  -9.8898 -12.2455   H         1 RES1   0.0000
    36 H36      0.4535  -9.9663 -13.3771   H         1 RES1   0.0000
    37 N37     -2.2435 -12.0390 -13.2394   N.4       1 RES1   1.0000
    38 H38     -2.5589 -11.7697 -12.3130   H         1 RES1   0.0000
    39 H39     -2.3597 -13.0403 -13.3586   H         1 RES1   0.0000
    40 N40     -0.1490  -4.4335 -16.3269   N.ar      1 RES1   0.0000
    41 C41      2.4700  -3.7855 -16.1469   C.ar      1 RES1   0.0000
    42 H42      3.5204  -3.5265 -16.0650   H         1 RES1   0.0000
    43 N43     -0.3324  -2.8774 -18.0012   N.pl3     1 RES1   0.0000
    44 H44      0.0911  -2.1357 -18.5587   H         1 RES1   0.0000
    45 C45      1.9748  -4.7687 -15.3142   C.ar      1 RES1   0.0000
    46 H46      2.6104  -5.2808 -14.5994   H         1 RES1   0.0000
    47 C47      0.4377  -3.5025 -17.0963   C.ar      1 RES1   0.0000
    48 N48      1.7264  -3.1344 -17.0507   N.ar      1 RES1   0.0000
    49 C49     -1.7565  -3.1500 -18.1936   C.3       1 RES1   0.0000
    50 H50     -2.1968  -3.4266 -17.2231   H         1 RES1   0.0000
    51 C51     -2.0013  -4.2800 -19.1743   C.ar      1 RES1   0.0000
    52 C52     -2.4130  -1.8613 -18.6748   C.3       1 RES1   0.0000
    53 H53     -3.4846  -1.9987 -18.8040   H         1 RES1   0.0000
    54 H54     -2.2585  -1.0569 -17.9588   H         1 RES1   0.0000
    55 H55     -1.9943  -1.5501 -19.6295   H         1 RES1   0.0000
    56 C56     -2.4663  -6.3547 -20.9742   C.ar      1 RES1   0.0000
    57 H57     -2.6472  -7.1622 -21.6759   H         1 RES1   0.0000
    58 C58     -3.2947  -4.6779 -19.4806   C.ar      1 RES1   0.0000
    59 H59     -4.1348  -4.1752 -19.0130   H         1 RES1   0.0000
    60 C60     -0.9438  -4.9413 -19.7836   C.ar      1 RES1   0.0000
    61 H61      0.0765  -4.6490 -19.5583   H         1 RES1   0.0000
    62 C62     -1.1764  -5.9721 -20.6784   C.ar      1 RES1   0.0000
    63 H63     -0.3401  -6.4795 -21.1475   H         1 RES1   0.0000
    64 C64     -3.5254  -5.7083 -20.3761   C.ar      1 RES1   0.0000
    65 H65     -4.5426  -6.0069 -20.6069   H         1 RES1   0.0000
@<TRIPOS>BOND
     1     1     5   ar
     2     1     6   ar
     3     1     2    1
     4     3     8   ar
     5     3     9   ar
     6     3     4    1
     7     5     9   ar
     8     5    11    1
     9     6     8   ar
    10     6     7    1
    11     8    12    1
    12     9    10    1
    13    11    20    2
    14    11    23    1
    15    13    14    1
    16    13    23   am
    17    13    24    1
    18    14    31    1
    19    14    34    1
    20    14    15    1
    21    16    24    1
    22    16    17    1
    23    16    18    1
    24    16    19    1
    25    20    21    1
    26    20    24    1
    27    21    40   ar
    28    21    45   ar
    29    22    23    2
    30    25    34    1
    31    25    37    1
    32    25    26    1
    33    25    27    1
    34    28    31    1
    35    28    37    1
    36    28    29    1
    37    28    30    1
    38    31    32    1
    39    31    33    1
    40    34    35    1
    41    34    36    1
    42    37    38    1
    43    37    39    1
    44    40    47   ar
    45    41    45   ar
    46    41    48   ar
    47    41    42    1
    48    43    47    1
    49    43    49    1
    50    43    44    1
    51    45    46    1
    52    47    48   ar
    53    49    51    1
    54    49    52    1
    55    49    50    1
    56    51    58   ar
    57    51    60   ar
    58    52    53    1
    59    52    54    1
    60    52    55    1
    61    56    62   ar
    62    56    64   ar
    63    56    57    1
    64    58    64   ar
    65    58    59    1
    66    60    62   ar
    67    60    61    1
    68    62    63    1
    69    64    65    1
@<TRIPOS>SUBSTRUCTURE
     1 RES1        1 GROUP             0 ****  ****    0  
@<TRIPOS>MOLECULE
LIGAND_00216
    65    69     1     0     0
SMALL
USER_CHARGES
****
Generated from the CSD

@<TRIPOS>ATOM
     1 C1       1.6192  -5.8026 -11.4437   C.ar      1 RES1   0.0000
     2 H2       1.8959  -6.8509 -11.4760   H         1 RES1   0.0000
     3 C3       0.9594  -3.1211 -11.3650   C.ar      1 RES1   0.0000
     4 H4       0.7112  -2.0654 -11.3334   H         1 RES1   0.0000
     5 C5       0.6269  -5.3301 -12.2975   C.ar      1 RES1   0.0000
     6 C6       2.2660  -4.9608 -10.5563   C.ar      1 RES1   0.0000
     7 H7       3.0316  -5.3403  -9.8878   H         1 RES1   0.0000
     8 C8       1.9192  -3.6391 -10.5430   C.ar      1 RES1   0.0000
     9 C9       0.3110  -3.9757 -12.2376   C.ar      1 RES1   0.0000
    10 H10     -0.4621  -3.5762 -12.8841   H         1 RES1   0.0000
    11 C11     -0.0799  -6.2291 -13.2667   C.2       1 RES1   0.0000
    12 F12      2.5551  -2.8043  -9.6766   F         1 RES1   0.0000
    13 N13     -1.2943  -7.9025 -14.1507   N.am      1 RES1   0.0000
    14 C14     -1.6379  -9.3530 -14.3367   C.3       1 RES1   0.0000
    15 H15     -1.4133  -9.6239 -15.3673   H         1 RES1   0.0000
    16 C16     -1.5293  -7.0021 -16.3811   C.3       1 RES1   0.0000
    17 H17     -0.9284  -6.9687 -17.2875   H         1 RES1   0.0000
    18 H18     -2.2431  -7.8176 -16.4780   H         1 RES1   0.0000
    19 H19     -2.0864  -6.0704 -16.3084   H         1 RES1   0.0000
    20 C20     -0.0279  -6.1202 -14.6126   C.2       1 RES1   0.0000
    21 C21      0.6269  -5.0726 -15.4374   C.ar      1 RES1   0.0000
    22 O22     -1.1148  -7.9071 -11.8599   O.2       1 RES1   0.0000
    23 C23     -0.8719  -7.3823 -12.9387   C.2       1 RES1   0.0000
    24 N24     -0.6815  -7.1906 -15.2034   N.3       1 RES1   0.0000
    25 C25     -1.1025 -11.7018 -13.6134   C.3       1 RES1   0.0000
    26 H26     -0.5127 -12.2948 -12.9159   H         1 RES1   0.0000
    27 H27     -0.8587 -11.9933 -14.6340   H         1 RES1   0.0000
    28 C28     -3.4262 -11.1148 -14.2521   C.3       1 RES1   0.0000
    29 H29     -3.2513 -11.4014 -15.2880   H         1 RES1   0.0000
    30 H30     -4.4699 -11.2929 -13.9973   H         1 RES1   0.0000
    31 C31     -3.1170  -9.6347 -14.0845   C.3       1 RES1   0.0000
    32 H32     -3.7143  -9.0636 -14.7938   H         1 RES1   0.0000
    33 H33     -3.3695  -9.3308 -13.0698   H         1 RES1   0.0000
    34 C34     -0.7846 -10.2294 -13.4191   C.3       1 RES1   0.0000
    35 H35     -0.9824  -9.9571 -12.3834   H         1 RES1   0.0000
    36 H36      0.2674 -10.0605 -13.6442   H         1 RES1   0.0000
    37 N37     -2.5571 -11.9397 -13.3622   N.4       1 RES1   1.0000
    38 H38     -2.7642 -11.7070 -12.3962   H         1 RES1   0.0000
    39 H39     -2.7606 -12.9207 -13.5250   H         1 RES1   0.0000
    40 N40      1.6492  -5.4674 -16.2125   N.ar      1 RES1   0.0000
    41 C41      0.9175  -2.8643 -16.2094   C.ar      1 RES1   0.0000
    42 H42      0.6145  -1.8224 -16.2076   H         1 RES1   0.0000
    43 N43      3.3019  -4.9139 -17.7026   N.pl3     1 RES1   0.0000
    44 H44      3.7480  -4.2156 -18.2974   H         1 RES1   0.0000
    45 C45      0.2208  -3.7465 -15.4083   C.ar      1 RES1   0.0000
    46 H46     -0.6032  -3.4174 -14.7839   H         1 RES1   0.0000
    47 C47      2.2656  -4.5244 -16.9431   C.ar      1 RES1   0.0000
    48 N48      1.9469  -3.2225 -16.9876   N.ar      1 RES1   0.0000
    49 C49      3.7912  -6.2903 -17.7781   C.3       1 RES1   0.0000
    50 H50      2.9379  -6.9749 -17.6536   H         1 RES1   0.0000
    51 C51      4.8177  -6.5984 -16.7058   C.ar      1 RES1   0.0000
    52 C52      4.3798  -6.4961 -19.1689   C.3       1 RES1   0.0000
    53 H53      4.7316  -7.5183 -19.2920   H         1 RES1   0.0000
    54 H54      3.6356  -6.2991 -19.9377   H         1 RES1   0.0000
    55 H55      5.2215  -5.8265 -19.3328   H         1 RES1   0.0000
    56 C56      6.7052  -7.1790 -14.7409   C.ar      1 RES1   0.0000
    57 H57      7.4409  -7.4048 -13.9761   H         1 RES1   0.0000
    58 C58      5.3928  -7.8584 -16.6237   C.ar      1 RES1   0.0000
    59 H59      5.1035  -8.6267 -17.3331   H         1 RES1   0.0000
    60 C60      5.2027  -5.6341 -15.7845   C.ar      1 RES1   0.0000
    61 H61      4.7653  -4.6421 -15.8277   H         1 RES1   0.0000
    62 C62      6.1413  -5.9240 -14.8086   C.ar      1 RES1   0.0000
    63 H63      6.4330  -5.1602 -14.0956   H         1 RES1   0.0000
    64 C64      6.3317  -8.1462 -15.6478   C.ar      1 RES1   0.0000
    65 H65      6.7739  -9.1357 -15.5975   H         1 RES1   0.0000
@<TRIPOS>BOND
     1     1     5   ar
     2     1     6   ar
     3     1     2    1
     4     3     8   ar
     5     3     9   ar
     6     3     4    1
     7     5     9   ar
     8     5    11    1
     9     6     8   ar
    10     6     7    1
    11     8    12    1
    12     9    10    1
    13    11    20    2
    14    11    23    1
    15    13    14    1
    16    13    23   am
    17    13    24    1
    18    14    31    1
    19    14    34    1
    20    14    15    1
    21    16    24    1
    22    16    17    1
    23    16    18    1
    24    16    19    1
    25    20    21    1
    26    20    24    1
    27    21    40   ar
    28    21    45   ar
    29    22    23    2
    30    25    34    1
    31    25    37    1
    32    25    26    1
    33    25    27    1
    34    28    31    1
    35    28    37    1
    36    28    29    1
    37    28    30    1
    38    31    32    1
    39    31    33    1
    40    34    35    1
    41    34    36    1
    42    37    38    1
    43    37    39    1
    44    40    47   ar
    45    41    45   ar
    46    41    48   ar
    47    41    42    1
    48    43    47    1
    49    43    49    1
    50    43    44    1
    51    45    46    1
    52    47    48   ar
    53    49    51    1
    54    49    52    1
    55    49    50    1
    56    51    58   ar
    57    51    60   ar
    58    52    53    1
    59    52    54    1
    60    52    55    1
    61    56    62   ar
    62    56    64   ar
    63    56    57    1
    64    58    64   ar
    65    58    59    1
    66    60    62   ar
    67    60    61    1
    68    62    63    1
    69    64    65    1
@<TRIPOS>SUBSTRUCTURE
     1 RES1        1 GROUP             0 ****  ****    0  
@<TRIPOS>MOLECULE
LIGAND_00217
    65    69     1     0     0
SMALL
USER_CHARGES
****
Generated from the CSD

@<TRIPOS>ATOM
     1 C1      -2.4487  -4.4813 -16.6553   C.ar      1 RES1   0.0000
     2 H2      -2.7333  -5.4159 -17.1265   H         1 RES1   0.0000
     3 C3      -1.7663  -2.0839 -15.4644   C.ar      1 RES1   0.0000
     4 H4      -1.5079  -1.1379 -15.0003   H         1 RES1   0.0000
     5 C5      -1.8782  -4.5008 -15.3861   C.ar      1 RES1   0.0000
     6 C6      -2.6666  -3.2923 -17.3285   C.ar      1 RES1   0.0000
     7 H7      -3.1031  -3.2878 -18.3217   H         1 RES1   0.0000
     8 C8      -2.3208  -2.1229 -16.7119   C.ar      1 RES1   0.0000
     9 C9      -1.5413  -3.2801 -14.8080   C.ar      1 RES1   0.0000
    10 H10     -1.0886  -3.2598 -13.8232   H         1 RES1   0.0000
    11 C11     -1.6396  -5.7806 -14.6430   C.2       1 RES1   0.0000
    12 F12     -2.5372  -0.9493 -17.3658   F         1 RES1   0.0000
    13 N13     -1.2175  -7.9351 -14.1568   N.am      1 RES1   0.0000
    14 C14     -1.4609  -9.4109 -14.2962   C.3       1 RES1   0.0000
    15 H15     -1.1816  -9.7054 -15.3067   H         1 RES1   0.0000
    16 C16     -0.8349  -7.6731 -11.7850   C.3       1 RES1   0.0000
    17 H17     -1.3913  -8.3976 -11.1940   H         1 RES1   0.0000
    18 H18      0.1132  -8.1249 -12.0694   H         1 RES1   0.0000
    19 H19     -0.6247  -6.8110 -11.1554   H         1 RES1   0.0000
    20 C20     -1.7513  -5.9390 -13.3057   C.2       1 RES1   0.0000
    21 C21     -2.0254  -4.9138 -12.2663   C.ar      1 RES1   0.0000
    22 O22     -1.2067  -7.3998 -16.3914   O.2       1 RES1   0.0000
    23 C23     -1.3172  -7.0557 -15.2219   C.2       1 RES1   0.0000
    24 N24     -1.5969  -7.2749 -12.9690   N.3       1 RES1   0.0000
    25 C25     -0.8040 -11.6908 -13.4612   C.3       1 RES1   0.0000
    26 H26     -0.2039 -12.2173 -12.7205   H         1 RES1   0.0000
    27 H27     -0.5047 -12.0042 -14.4602   H         1 RES1   0.0000
    28 C28     -3.1352 -11.2808 -14.2024   C.3       1 RES1   0.0000
    29 H29     -2.9043 -11.5945 -15.2194   H         1 RES1   0.0000
    30 H30     -4.1741 -11.5168 -13.9768   H         1 RES1   0.0000
    31 C31     -2.9273  -9.7785 -14.0839   C.3       1 RES1   0.0000
    32 H32     -3.5332  -9.2748 -14.8356   H         1 RES1   0.0000
    33 H33     -3.2360  -9.4535 -13.0915   H         1 RES1   0.0000
    34 C34     -0.5880 -10.1945 -13.3152   C.3       1 RES1   0.0000
    35 H35     -0.8408  -9.8967 -12.2987   H         1 RES1   0.0000
    36 H36      0.4587  -9.9661 -13.5107   H         1 RES1   0.0000
    37 N37     -2.2488 -12.0132 -13.2508   N.4       1 RES1   1.0000
    38 H38     -2.5058 -11.7580 -12.3026   H         1 RES1   0.0000
    39 H39     -2.3832 -13.0108 -13.3810   H         1 RES1   0.0000
    40 N40     -0.9580  -4.3300 -11.6994   N.ar      1 RES1   0.0000
    41 C41     -3.4397  -3.6190 -10.8951   C.ar      1 RES1   0.0000
    42 H42     -4.4387  -3.3344 -10.5815   H         1 RES1   0.0000
    43 N43     -0.1258  -2.8511 -10.1571   N.pl3     1 RES1   0.0000
    44 H44      0.8006  -3.1712 -10.4390   H         1 RES1   0.0000
    45 C45     -3.3148  -4.5762 -11.8818   C.ar      1 RES1   0.0000
    46 H46     -4.1838  -5.0436 -12.3329   H         1 RES1   0.0000
    47 C47     -1.1929  -3.4204 -10.7400   C.ar      1 RES1   0.0000
    48 N48     -2.3968  -3.0232 -10.3026   N.ar      1 RES1   0.0000
    49 C49     -0.2095  -1.8456  -9.0980   C.3       1 RES1   0.0000
    50 H50     -1.1005  -2.0526  -8.4851   H         1 RES1   0.0000
    51 C51     -0.3177  -0.4363  -9.6463   C.ar      1 RES1   0.0000
    52 C52      1.0282  -1.9939  -8.2209   C.3       1 RES1   0.0000
    53 H53      1.0020  -1.2879  -7.3935   H         1 RES1   0.0000
    54 H54      1.0921  -2.9982  -7.8074   H         1 RES1   0.0000
    55 H55      1.9319  -1.8067  -8.7970   H         1 RES1   0.0000
    56 C56     -0.5083   2.1489 -10.6664   C.ar      1 RES1   0.0000
    57 H57     -0.5832   3.1557 -11.0639   H         1 RES1   0.0000
    58 C58      0.2619  -0.1087 -10.8636   C.ar      1 RES1   0.0000
    59 H59      0.7961  -0.8684 -11.4245   H         1 RES1   0.0000
    60 C60     -0.9928   0.5546  -8.9469   C.ar      1 RES1   0.0000
    61 H61     -1.4526   0.3225  -7.9920   H         1 RES1   0.0000
    62 C62     -1.0871   1.8391  -9.4554   C.ar      1 RES1   0.0000
    63 H63     -1.6185   2.6032  -8.8979   H         1 RES1   0.0000
    64 C64      0.1660   1.1760 -11.3708   C.ar      1 RES1   0.0000
    65 H65      0.6230   1.4165 -12.3249   H         1 RES1   0.0000
@<TRIPOS>BOND
     1     1     5   ar
     2     1     6   ar
     3     1     2    1
     4     3     8   ar
     5     3     9   ar
     6     3     4    1
     7     5     9   ar
     8     5    11    1
     9     6     8   ar
    10     6     7    1
    11     8    12    1
    12     9    10    1
    13    11    20    2
    14    11    23    1
    15    13    14    1
    16    13    23   am
    17    13    24    1
    18    14    31    1
    19    14    34    1
    20    14    15    1
    21    16    24    1
    22    16    17    1
    23    16    18    1
    24    16    19    1
    25    20    21    1
    26    20    24    1
    27    21    40   ar
    28    21    45   ar
    29    22    23    2
    30    25    34    1
    31    25    37    1
    32    25    26    1
    33    25    27    1
    34    28    31    1
    35    28    37    1
    36    28    29    1
    37    28    30    1
    38    31    32    1
    39    31    33    1
    40    34    35    1
    41    34    36    1
    42    37    38    1
    43    37    39    1
    44    40    47   ar
    45    41    45   ar
    46    41    48   ar
    47    41    42    1
    48    43    47    1
    49    43    49    1
    50    43    44    1
    51    45    46    1
    52    47    48   ar
    53    49    51    1
    54    49    52    1
    55    49    50    1
    56    51    58   ar
    57    51    60   ar
    58    52    53    1
    59    52    54    1
    60    52    55    1
    61    56    62   ar
    62    56    64   ar
    63    56    57    1
    64    58    64   ar
    65    58    59    1
    66    60    62   ar
    67    60    61    1
    68    62    63    1
    69    64    65    1
@<TRIPOS>SUBSTRUCTURE
     1 RES1        1 GROUP             0 ****  ****    0  
@<TRIPOS>MOLECULE
LIGAND_00218
    65    69     1     0     0
SMALL
USER_CHARGES
****
Generated from the CSD

@<TRIPOS>ATOM
     1 C1      -0.3162  -3.8975 -15.9770   C.ar      1 RES1   0.0000
     2 H2      -1.1083  -4.3258 -16.5816   H         1 RES1   0.0000
     3 C3       1.6788  -2.7660 -14.4370   C.ar      1 RES1   0.0000
     4 H4       2.4576  -2.3115 -13.8336   H         1 RES1   0.0000
     5 C5       0.0938  -4.5549 -14.8209   C.ar      1 RES1   0.0000
     6 C6       0.2623  -2.7036 -16.3697   C.ar      1 RES1   0.0000
     7 H7      -0.0573  -2.2034 -17.2778   H         1 RES1   0.0000
     8 C8       1.2448  -2.1679 -15.5855   C.ar      1 RES1   0.0000
     9 C9       1.1019  -3.9658 -14.0629   C.ar      1 RES1   0.0000
    10 H10      1.4497  -4.4550 -13.1602   H         1 RES1   0.0000
    11 C11     -0.5260  -5.8469 -14.3807   C.2       1 RES1   0.0000
    12 F12      1.8145  -0.9910 -15.9628   F         1 RES1   0.0000
    13 N13     -1.2508  -7.9374 -14.1634   N.am      1 RES1   0.0000
    14 C14     -1.5348  -9.4039 -14.3227   C.3       1 RES1   0.0000
    15 H15     -1.0958  -9.7328 -15.2634   H         1 RES1   0.0000
    16 C16     -2.1238  -7.8322 -11.7960   C.3       1 RES1   0.0000
    17 H17     -2.6689  -7.1065 -11.1959   H         1 RES1   0.0000
    18 H18     -2.7985  -8.6532 -12.0297   H         1 RES1   0.0000
    19 H19     -1.3068  -8.2250 -11.1945   H         1 RES1   0.0000
    20 C20     -1.1594  -5.9688 -13.1688   C.2       1 RES1   0.0000
    21 C21     -1.4160  -4.9157 -12.1531   C.ar      1 RES1   0.0000
    22 O22     -0.1647  -7.5120 -16.0952   O.2       1 RES1   0.0000
    23 C23     -0.5924  -7.1217 -15.0168   C.2       1 RES1   0.0000
    24 N24     -1.6136  -7.2140 -13.0203   N.pl3     1 RES1   0.0000
    25 C25     -1.1433 -11.6911 -13.3520   C.3       1 RES1   0.0000
    26 H26     -0.7087 -12.2267 -12.5093   H         1 RES1   0.0000
    27 H27     -0.6875 -12.0395 -14.2777   H         1 RES1   0.0000
    28 C28     -3.2854 -11.1963 -14.5006   C.3       1 RES1   0.0000
    29 H29     -2.8937 -11.5424 -15.4559   H         1 RES1   0.0000
    30 H30     -4.3577 -11.3816 -14.4593   H         1 RES1   0.0000
    31 C31     -3.0313  -9.7023 -14.3685   C.3       1 RES1   0.0000
    32 H32     -3.4708  -9.1894 -15.2228   H         1 RES1   0.0000
    33 H33     -3.4946  -9.3420 -13.4512   H         1 RES1   0.0000
    34 C34     -0.8864 -10.2028 -13.1915   C.3       1 RES1   0.0000
    35 H35     -1.3004  -9.8716 -12.2402   H         1 RES1   0.0000
    36 H36      0.1879 -10.0248 -13.2015   H         1 RES1   0.0000
    37 N37     -2.6161 -11.9453 -13.3966   N.4       1 RES1   1.0000
    38 H38     -3.0241 -11.6581 -12.5127   H         1 RES1   0.0000
    39 H39     -2.7722 -12.9387 -13.5343   H         1 RES1   0.0000
    40 N40     -0.4619  -4.7249 -11.2286   N.ar      1 RES1   0.0000
    41 C41     -2.7124  -3.2288 -11.1379   C.ar      1 RES1   0.0000
    42 H42     -3.6155  -2.6280 -11.1111   H         1 RES1   0.0000
    43 N43      0.2500  -3.6161  -9.3518   N.pl3     1 RES1   0.0000
    44 H44      0.1216  -2.8584  -8.6812   H         1 RES1   0.0000
    45 C45     -2.5846  -4.1682 -12.1411   C.ar      1 RES1   0.0000
    46 H46     -3.3622  -4.3161 -12.8831   H         1 RES1   0.0000
    47 C47     -0.6941  -3.7933 -10.2898   C.ar      1 RES1   0.0000
    48 N48     -1.7846  -3.0185 -10.1952   N.ar      1 RES1   0.0000
    49 C49      1.4816  -4.4011  -9.2699   C.3       1 RES1   0.0000
    50 H50      2.0304  -4.2957 -10.2186   H         1 RES1   0.0000
    51 C51      1.2134  -5.8735  -9.0284   C.ar      1 RES1   0.0000
    52 C52      2.3313  -3.8126  -8.1497   C.3       1 RES1   0.0000
    53 H53      3.2544  -4.3755  -8.0287   H         1 RES1   0.0000
    54 H54      2.5910  -2.7778  -8.3629   H         1 RES1   0.0000
    55 H55      1.7926  -3.8387  -7.2047   H         1 RES1   0.0000
    56 C56      0.7200  -8.5765  -8.5692   C.ar      1 RES1   0.0000
    57 H57      0.5271  -9.6292  -8.3906   H         1 RES1   0.0000
    58 C58      1.0415  -6.3549  -7.7385   C.ar      1 RES1   0.0000
    59 H59      1.1005  -5.6704  -6.8988   H         1 RES1   0.0000
    60 C60      1.1364  -6.7704 -10.0851   C.ar      1 RES1   0.0000
    61 H61      1.2693  -6.4175 -11.1024   H         1 RES1   0.0000
    62 C62      0.8907  -8.1136  -9.8553   C.ar      1 RES1   0.0000
    63 H63      0.8325  -8.8029 -10.6911   H         1 RES1   0.0000
    64 C64      0.7952  -7.6982  -7.5107   C.ar      1 RES1   0.0000
    65 H65      0.6611  -8.0593  -6.4965   H         1 RES1   0.0000
@<TRIPOS>BOND
     1     1     5   ar
     2     1     6   ar
     3     1     2    1
     4     3     8   ar
     5     3     9   ar
     6     3     4    1
     7     5     9   ar
     8     5    11    1
     9     6     8   ar
    10     6     7    1
    11     8    12    1
    12     9    10    1
    13    11    20    2
    14    11    23    1
    15    13    14    1
    16    13    23   am
    17    13    24    1
    18    14    31    1
    19    14    34    1
    20    14    15    1
    21    16    24    1
    22    16    17    1
    23    16    18    1
    24    16    19    1
    25    20    21    1
    26    20    24    1
    27    21    40   ar
    28    21    45   ar
    29    22    23    2
    30    25    34    1
    31    25    37    1
    32    25    26    1
    33    25    27    1
    34    28    31    1
    35    28    37    1
    36    28    29    1
    37    28    30    1
    38    31    32    1
    39    31    33    1
    40    34    35    1
    41    34    36    1
    42    37    38    1
    43    37    39    1
    44    40    47   ar
    45    41    45   ar
    46    41    48   ar
    47    41    42    1
    48    43    47    1
    49    43    49    1
    50    43    44    1
    51    45    46    1
    52    47    48   ar
    53    49    51    1
    54    49    52    1
    55    49    50    1
    56    51    58   ar
    57    51    60   ar
    58    52    53    1
    59    52    54    1
    60    52    55    1
    61    56    62   ar
    62    56    64   ar
    63    56    57    1
    64    58    64   ar
    65    58    59    1
    66    60    62   ar
    67    60    61    1
    68    62    63    1
    69    64    65    1
@<TRIPOS>SUBSTRUCTURE
     1 RES1        1 GROUP             0 ****  ****    0  
@<TRIPOS>MOLECULE
LIGAND_00219
    65    69     1     0     0
SMALL
USER_CHARGES
****
Generated from the CSD

@<TRIPOS>ATOM
     1 C1      -0.6546  -3.3906 -14.9657   C.ar      1 RES1   0.0000
     2 H2      -1.7182  -3.4104 -14.7539   H         1 RES1   0.0000
     3 C3       2.0587  -3.3028 -15.4775   C.ar      1 RES1   0.0000
     4 H4       3.1250  -3.2584 -15.6731   H         1 RES1   0.0000
     5 C5       0.0938  -4.5549 -14.8209   C.ar      1 RES1   0.0000
     6 C6      -0.0688  -2.2039 -15.3695   C.ar      1 RES1   0.0000
     7 H7      -0.6623  -1.3036 -15.4888   H         1 RES1   0.0000
     8 C8       1.2758  -2.1919 -15.6125   C.ar      1 RES1   0.0000
     9 C9       1.4585  -4.4856 -15.0864   C.ar      1 RES1   0.0000
    10 H10      2.0695  -5.3759 -14.9901   H         1 RES1   0.0000
    11 C11     -0.5260  -5.8469 -14.3807   C.2       1 RES1   0.0000
    12 F12      1.8597  -1.0269 -16.0047   F         1 RES1   0.0000
    13 N13     -1.2508  -7.9374 -14.1634   N.am      1 RES1   0.0000
    14 C14     -1.5349  -9.4039 -14.3227   C.3       1 RES1   0.0000
    15 H15     -1.0958  -9.7328 -15.2634   H         1 RES1   0.0000
    16 C16     -2.1238  -7.8322 -11.7960   C.3       1 RES1   0.0000
    17 H17     -2.6689  -7.1065 -11.1959   H         1 RES1   0.0000
    18 H18     -2.7985  -8.6532 -12.0298   H         1 RES1   0.0000
    19 H19     -1.3068  -8.2250 -11.1945   H         1 RES1   0.0000
    20 C20     -1.1594  -5.9688 -13.1688   C.2       1 RES1   0.0000
    21 C21     -1.4160  -4.9157 -12.1531   C.ar      1 RES1   0.0000
    22 O22     -0.1647  -7.5120 -16.0952   O.2       1 RES1   0.0000
    23 C23     -0.5924  -7.1217 -15.0168   C.2       1 RES1   0.0000
    24 N24     -1.6136  -7.2140 -13.0203   N.pl3     1 RES1   0.0000
    25 C25     -1.1434 -11.6911 -13.3521   C.3       1 RES1   0.0000
    26 H26     -0.7087 -12.2267 -12.5093   H         1 RES1   0.0000
    27 H27     -0.6875 -12.0395 -14.2777   H         1 RES1   0.0000
    28 C28     -3.2854 -11.1963 -14.5006   C.3       1 RES1   0.0000
    29 H29     -2.8937 -11.5424 -15.4559   H         1 RES1   0.0000
    30 H30     -4.3577 -11.3815 -14.4594   H         1 RES1   0.0000
    31 C31     -3.0313  -9.7023 -14.3685   C.3       1 RES1   0.0000
    32 H32     -3.4708  -9.1894 -15.2228   H         1 RES1   0.0000
    33 H33     -3.4946  -9.3420 -13.4512   H         1 RES1   0.0000
    34 C34     -0.8864 -10.2028 -13.1915   C.3       1 RES1   0.0000
    35 H35     -1.3004  -9.8716 -12.2402   H         1 RES1   0.0000
    36 H36      0.1879 -10.0248 -13.2015   H         1 RES1   0.0000
    37 N37     -2.6161 -11.9453 -13.3966   N.4       1 RES1   1.0000
    38 H38     -3.0241 -11.6580 -12.5127   H         1 RES1   0.0000
    39 H39     -2.7722 -12.9387 -13.5343   H         1 RES1   0.0000
    40 N40     -0.4619  -4.7249 -11.2286   N.ar      1 RES1   0.0000
    41 C41     -2.7124  -3.2288 -11.1379   C.ar      1 RES1   0.0000
    42 H42     -3.6155  -2.6280 -11.1111   H         1 RES1   0.0000
    43 N43      0.2500  -3.6161  -9.3518   N.pl3     1 RES1   0.0000
    44 H44      0.1216  -2.8584  -8.6812   H         1 RES1   0.0000
    45 C45     -2.5846  -4.1682 -12.1411   C.ar      1 RES1   0.0000
    46 H46     -3.3622  -4.3161 -12.8831   H         1 RES1   0.0000
    47 C47     -0.6941  -3.7933 -10.2898   C.ar      1 RES1   0.0000
    48 N48     -1.7846  -3.0185 -10.1952   N.ar      1 RES1   0.0000
    49 C49      1.4816  -4.4011  -9.2699   C.3       1 RES1   0.0000
    50 H50      2.0304  -4.2957 -10.2186   H         1 RES1   0.0000
    51 C51      1.2134  -5.8735  -9.0284   C.ar      1 RES1   0.0000
    52 C52      2.3313  -3.8126  -8.1497   C.3       1 RES1   0.0000
    53 H53      3.2544  -4.3756  -8.0286   H         1 RES1   0.0000
    54 H54      2.5910  -2.7778  -8.3629   H         1 RES1   0.0000
    55 H55      1.7926  -3.8387  -7.2047   H         1 RES1   0.0000
    56 C56      0.7200  -8.5765  -8.5692   C.ar      1 RES1   0.0000
    57 H57      0.5271  -9.6292  -8.3906   H         1 RES1   0.0000
    58 C58      1.0415  -6.3549  -7.7385   C.ar      1 RES1   0.0000
    59 H59      1.1005  -5.6704  -6.8988   H         1 RES1   0.0000
    60 C60      1.1364  -6.7704 -10.0851   C.ar      1 RES1   0.0000
    61 H61      1.2693  -6.4175 -11.1024   H         1 RES1   0.0000
    62 C62      0.8907  -8.1136  -9.8553   C.ar      1 RES1   0.0000
    63 H63      0.8325  -8.8029 -10.6911   H         1 RES1   0.0000
    64 C64      0.7952  -7.6982  -7.5107   C.ar      1 RES1   0.0000
    65 H65      0.6612  -8.0593  -6.4965   H         1 RES1   0.0000
@<TRIPOS>BOND
     1     1     5   ar
     2     1     6   ar
     3     1     2    1
     4     3     8   ar
     5     3     9   ar
     6     3     4    1
     7     5     9   ar
     8     5    11    1
     9     6     8   ar
    10     6     7    1
    11     8    12    1
    12     9    10    1
    13    11    20    2
    14    11    23    1
    15    13    14    1
    16    13    23   am
    17    13    24    1
    18    14    31    1
    19    14    34    1
    20    14    15    1
    21    16    24    1
    22    16    17    1
    23    16    18    1
    24    16    19    1
    25    20    21    1
    26    20    24    1
    27    21    40   ar
    28    21    45   ar
    29    22    23    2
    30    25    34    1
    31    25    37    1
    32    25    26    1
    33    25    27    1
    34    28    31    1
    35    28    37    1
    36    28    29    1
    37    28    30    1
    38    31    32    1
    39    31    33    1
    40    34    35    1
    41    34    36    1
    42    37    38    1
    43    37    39    1
    44    40    47   ar
    45    41    45   ar
    46    41    48   ar
    47    41    42    1
    48    43    47    1
    49    43    49    1
    50    43    44    1
    51    45    46    1
    52    47    48   ar
    53    49    51    1
    54    49    52    1
    55    49    50    1
    56    51    58   ar
    57    51    60   ar
    58    52    53    1
    59    52    54    1
    60    52    55    1
    61    56    62   ar
    62    56    64   ar
    63    56    57    1
    64    58    64   ar
    65    58    59    1
    66    60    62   ar
    67    60    61    1
    68    62    63    1
    69    64    65    1
@<TRIPOS>SUBSTRUCTURE
     1 RES1        1 GROUP             0 ****  ****    0  
@<TRIPOS>MOLECULE
LIGAND_00220
    65    69     1     0     0
SMALL
USER_CHARGES
****
Generated from the CSD

@<TRIPOS>ATOM
     1 C1       0.7307  -4.3148 -15.8357   C.ar      1 RES1   0.0000
     2 H2       0.3412  -4.9309 -16.6389   H         1 RES1   0.0000
     3 C3       1.7031  -2.7084 -13.8094   C.ar      1 RES1   0.0000
     4 H4       2.0816  -2.0684 -13.0193   H         1 RES1   0.0000
     5 C5       0.5126  -4.6946 -14.5147   C.ar      1 RES1   0.0000
     6 C6       1.4304  -3.1625 -16.1472   C.ar      1 RES1   0.0000
     7 H7       1.6037  -2.8797 -17.1801   H         1 RES1   0.0000
     8 C8       1.8965  -2.3875 -15.1228   C.ar      1 RES1   0.0000
     9 C9       1.0140  -3.8697 -13.5117   C.ar      1 RES1   0.0000
    10 H10      0.8678  -4.1399 -12.4721   H         1 RES1   0.0000
    11 C11     -0.2468  -5.9380 -14.1617   C.2       1 RES1   0.0000
    12 F12      2.5808  -1.2499 -15.4217   F         1 RES1   0.0000
    13 N13     -1.2406  -7.9410 -14.1570   N.am      1 RES1   0.0000
    14 C14     -1.5105  -9.4109 -14.3092   C.3       1 RES1   0.0000
    15 H15     -0.9489  -9.7702 -15.1702   H         1 RES1   0.0000
    16 C16     -2.9633  -7.4981 -12.4712   C.3       1 RES1   0.0000
    17 H17     -3.2160  -6.7698 -11.7033   H         1 RES1   0.0000
    18 H18     -3.7035  -7.4234 -13.2652   H         1 RES1   0.0000
    19 H19     -3.0344  -8.4916 -12.0334   H         1 RES1   0.0000
    20 C20     -1.0688  -6.0097 -13.0848   C.2       1 RES1   0.0000
    21 C21     -1.4087  -4.9383 -12.1137   C.ar      1 RES1   0.0000
    22 O22      0.2750  -7.5989 -15.8623   O.2       1 RES1   0.0000
    23 C23     -0.3156  -7.1911 -14.8707   C.2       1 RES1   0.0000
    24 N24     -1.6169  -7.2574 -12.9912   N.3       1 RES1   0.0000
    25 C25     -1.2722 -11.6680 -13.2250   C.3       1 RES1   0.0000
    26 H26     -0.9611 -12.1784 -12.3146   H         1 RES1   0.0000
    27 H27     -0.6962 -12.0463 -14.0682   H         1 RES1   0.0000
    28 C28     -3.2328 -11.2030 -14.6713   C.3       1 RES1   0.0000
    29 H29     -2.7162 -11.5797 -15.5529   H         1 RES1   0.0000
    30 H30     -4.3019 -11.3838 -14.7722   H         1 RES1   0.0000
    31 C31     -2.9887  -9.7063 -14.5511   C.3       1 RES1   0.0000
    32 H32     -3.3030  -9.2190 -15.4728   H         1 RES1   0.0000
    33 H33     -3.5709  -9.3164 -13.7175   H         1 RES1   0.0000
    34 C34     -1.0292 -10.1762 -13.0759   C.3       1 RES1   0.0000
    35 H35     -1.5674  -9.8144 -12.2010   H         1 RES1   0.0000
    36 H36      0.0376 -10.0017 -12.9437   H         1 RES1   0.0000
    37 N37     -2.7267 -11.9193 -13.4636   N.4       1 RES1   1.0000
    38 H38     -3.2501 -11.6035 -12.6533   H         1 RES1   0.0000
    39 H39     -2.8694 -12.9160 -13.5912   H         1 RES1   0.0000
    40 N40     -1.0980  -5.1692 -10.8285   N.ar      1 RES1   0.0000
    41 C41     -2.3055  -2.8456 -11.5027   C.ar      1 RES1   0.0000
    42 H42     -2.7847  -1.9129 -11.7813   H         1 RES1   0.0000
    43 N43     -1.1330  -4.4573  -8.6489   N.pl3     1 RES1   0.0000
    44 H44     -1.3498  -3.7303  -7.9672   H         1 RES1   0.0000
    45 C45     -2.0280  -3.7587 -12.5000   C.ar      1 RES1   0.0000
    46 H46     -2.2846  -3.5636 -13.5360   H         1 RES1   0.0000
    47 C47     -1.4239  -4.2187  -9.9377   C.ar      1 RES1   0.0000
    48 N48     -2.0171  -3.0474 -10.2104   N.ar      1 RES1   0.0000
    49 C49     -0.4673  -5.6684  -8.1696   C.3       1 RES1   0.0000
    50 H50     -1.0406  -6.5443  -8.5107   H         1 RES1   0.0000
    51 C51     -0.3700  -5.7143  -6.6573   C.ar      1 RES1   0.0000
    52 C52      0.9174  -5.7170  -8.8048   C.3       1 RES1   0.0000
    53 H53      1.6344  -6.1837  -8.1327   H         1 RES1   0.0000
    54 H54      0.8992  -6.2885  -9.7305   H         1 RES1   0.0000
    55 H55      1.2708  -4.7137  -9.0331   H         1 RES1   0.0000
    56 C56     -0.1831  -5.7856  -3.8787   C.ar      1 RES1   0.0000
    57 H57     -0.1110  -5.8130  -2.7965   H         1 RES1   0.0000
    58 C58      0.3106  -4.7226  -5.9657   C.ar      1 RES1   0.0000
    59 H59      0.7759  -3.9101  -6.5138   H         1 RES1   0.0000
    60 C60     -0.9538  -6.7446  -5.9329   C.ar      1 RES1   0.0000
    61 H61     -1.4897  -7.5322  -6.4520   H         1 RES1   0.0000
    62 C62     -0.8604  -6.7784  -4.5518   C.ar      1 RES1   0.0000
    63 H63     -1.3222  -7.5895  -3.9987   H         1 RES1   0.0000
    64 C64      0.4024  -4.7577  -4.5847   C.ar      1 RES1   0.0000
    65 H65      0.9364  -3.9740  -4.0578   H         1 RES1   0.0000
@<TRIPOS>BOND
     1     1     5   ar
     2     1     6   ar
     3     1     2    1
     4     3     8   ar
     5     3     9   ar
     6     3     4    1
     7     5     9   ar
     8     5    11    1
     9     6     8   ar
    10     6     7    1
    11     8    12    1
    12     9    10    1
    13    11    20    2
    14    11    23    1
    15    13    14    1
    16    13    23   am
    17    13    24    1
    18    14    31    1
    19    14    34    1
    20    14    15    1
    21    16    24    1
    22    16    17    1
    23    16    18    1
    24    16    19    1
    25    20    21    1
    26    20    24    1
    27    21    40   ar
    28    21    45   ar
    29    22    23    2
    30    25    34    1
    31    25    37    1
    32    25    26    1
    33    25    27    1
    34    28    31    1
    35    28    37    1
    36    28    29    1
    37    28    30    1
    38    31    32    1
    39    31    33    1
    40    34    35    1
    41    34    36    1
    42    37    38    1
    43    37    39    1
    44    40    47   ar
    45    41    45   ar
    46    41    48   ar
    47    41    42    1
    48    43    47    1
    49    43    49    1
    50    43    44    1
    51    45    46    1
    52    47    48   ar
    53    49    51    1
    54    49    52    1
    55    49    50    1
    56    51    58   ar
    57    51    60   ar
    58    52    53    1
    59    52    54    1
    60    52    55    1
    61    56    62   ar
    62    56    64   ar
    63    56    57    1
    64    58    64   ar
    65    58    59    1
    66    60    62   ar
    67    60    61    1
    68    62    63    1
    69    64    65    1
@<TRIPOS>SUBSTRUCTURE
     1 RES1        1 GROUP             0 ****  ****    0  
@<TRIPOS>MOLECULE
LIGAND_00221
    65    69     1     0     0
SMALL
USER_CHARGES
****
Generated from the CSD

@<TRIPOS>ATOM
     1 C1       0.1131  -3.8882 -12.3737   C.ar      1 RES1   0.0000
     2 H2       1.0600  -4.2869 -12.7213   H         1 RES1   0.0000
     3 C3      -2.2875  -2.8315 -11.5065   C.ar      1 RES1   0.0000
     4 H4      -3.2269  -2.4061 -11.1689   H         1 RES1   0.0000
     5 C5      -1.0647  -4.5701 -12.6647   C.ar      1 RES1   0.0000
     6 C6       0.1017  -2.7068 -11.6536   C.ar      1 RES1   0.0000
     7 H7       1.0259  -2.1874 -11.4233   H         1 RES1   0.0000
     8 C8      -1.1017  -2.2082 -11.2408   C.ar      1 RES1   0.0000
     9 C9      -2.2612  -4.0185 -12.2153   C.ar      1 RES1   0.0000
    10 H10     -3.1963  -4.5277 -12.4188   H         1 RES1   0.0000
    11 C11     -1.0685  -5.8489 -13.4470   C.2       1 RES1   0.0000
    12 F12     -1.1209  -1.0438 -10.5368   F         1 RES1   0.0000
    13 N13     -1.3101  -7.9281 -14.1961   N.am      1 RES1   0.0000
    14 C14     -1.6724  -9.3730 -14.3897   C.3       1 RES1   0.0000
    15 H15     -1.3492  -9.6718 -15.3858   H         1 RES1   0.0000
    16 C16     -0.5528  -7.6020 -16.5831   C.3       1 RES1   0.0000
    17 H17     -0.6612  -6.7673 -17.2726   H         1 RES1   0.0000
    18 H18      0.4300  -8.0427 -16.7370   H         1 RES1   0.0000
    19 H19     -1.3028  -8.3492 -16.8340   H         1 RES1   0.0000
    20 C20     -0.5870  -5.9122 -14.7311   C.2       1 RES1   0.0000
    21 C21      0.0604  -4.8376 -15.5265   C.ar      1 RES1   0.0000
    22 O22     -2.0484  -7.5929 -12.0902   O.2       1 RES1   0.0000
    23 C23     -1.5305  -7.1553 -13.1092   C.2       1 RES1   0.0000
    24 N24     -0.7113  -7.1551 -15.1988   N.pl3     1 RES1   0.0000
    25 C25     -1.2803 -11.7185 -13.5701   C.3       1 RES1   0.0000
    26 H26     -0.7831 -12.3111 -12.8036   H         1 RES1   0.0000
    27 H27     -0.9397 -12.0382 -14.5539   H         1 RES1   0.0000
    28 C28     -3.5077 -11.0864 -14.4597   C.3       1 RES1   0.0000
    29 H29     -3.2338 -11.3998 -15.4660   H         1 RES1   0.0000
    30 H30     -4.5768 -11.2324 -14.3124   H         1 RES1   0.0000
    31 C31     -3.1769  -9.6115 -14.2887   C.3       1 RES1   0.0000
    32 H32     -3.6810  -9.0408 -15.0672   H         1 RES1   0.0000
    33 H33     -3.5253  -9.2793 -13.3118   H         1 RES1   0.0000
    34 C34     -0.9439 -10.2508 -13.3714   C.3       1 RES1   0.0000
    35 H35     -1.2410  -9.9513 -12.3674   H         1 RES1   0.0000
    36 H36      0.1301 -10.1137 -13.4882   H         1 RES1   0.0000
    37 N37     -2.7592 -11.9138 -13.4683   N.4       1 RES1   1.0000
    38 H38     -3.0594 -11.6550 -12.5339   H         1 RES1   0.0000
    39 H39     -2.9716 -12.8926 -13.6329   H         1 RES1   0.0000
    40 N40     -0.4046  -3.5913 -15.3466   N.ar      1 RES1   0.0000
    41 C41      1.5970  -4.0162 -17.1142   C.ar      1 RES1   0.0000
    42 H42      2.4040  -4.1933 -17.8176   H         1 RES1   0.0000
    43 N43     -0.3230  -1.3716 -15.9161   N.pl3     1 RES1   0.0000
    44 H44     -1.1227  -1.2444 -15.2959   H         1 RES1   0.0000
    45 C45      1.0863  -5.0967 -16.4235   C.ar      1 RES1   0.0000
    46 H46      1.4677  -6.1007 -16.5770   H         1 RES1   0.0000
    47 C47      0.1554  -2.6154 -16.0793   C.ar      1 RES1   0.0000
    48 N48      1.1511  -2.7621 -16.9655   N.ar      1 RES1   0.0000
    49 C49      0.1905  -0.1969 -16.6203   C.3       1 RES1   0.0000
    50 H50      0.0584  -0.3491 -17.7027   H         1 RES1   0.0000
    51 C51      1.6611   0.0461 -16.3430   C.ar      1 RES1   0.0000
    52 C52     -0.6483   1.0018 -16.1928   C.3       1 RES1   0.0000
    53 H53     -0.3289   1.9021 -16.7135   H         1 RES1   0.0000
    54 H54     -1.7006   0.8374 -16.4147   H         1 RES1   0.0000
    55 H55     -0.5511   1.1769 -15.1234   H         1 RES1   0.0000
    56 C56      4.3616   0.4862 -15.8194   C.ar      1 RES1   0.0000
    57 H57      5.4135   0.6570 -15.6159   H         1 RES1   0.0000
    58 C58      2.2195  -0.3288 -15.1294   C.ar      1 RES1   0.0000
    59 H59      1.5966  -0.7985 -14.3753   H         1 RES1   0.0000
    60 C60      2.4787   0.6480 -17.2897   C.ar      1 RES1   0.0000
    61 H61      2.0641   0.9513 -18.2453   H         1 RES1   0.0000
    62 C62      3.8209   0.8657 -17.0282   C.ar      1 RES1   0.0000
    63 H63      4.4480   1.3366 -17.7779   H         1 RES1   0.0000
    64 C64      3.5619  -0.1109 -14.8700   C.ar      1 RES1   0.0000
    65 H65      3.9845  -0.4112 -13.9170   H         1 RES1   0.0000
@<TRIPOS>BOND
     1     1     5   ar
     2     1     6   ar
     3     1     2    1
     4     3     8   ar
     5     3     9   ar
     6     3     4    1
     7     5     9   ar
     8     5    11    1
     9     6     8   ar
    10     6     7    1
    11     8    12    1
    12     9    10    1
    13    11    20    2
    14    11    23    1
    15    13    14    1
    16    13    23   am
    17    13    24    1
    18    14    31    1
    19    14    34    1
    20    14    15    1
    21    16    24    1
    22    16    17    1
    23    16    18    1
    24    16    19    1
    25    20    21    1
    26    20    24    1
    27    21    40   ar
    28    21    45   ar
    29    22    23    2
    30    25    34    1
    31    25    37    1
    32    25    26    1
    33    25    27    1
    34    28    31    1
    35    28    37    1
    36    28    29    1
    37    28    30    1
    38    31    32    1
    39    31    33    1
    40    34    35    1
    41    34    36    1
    42    37    38    1
    43    37    39    1
    44    40    47   ar
    45    41    45   ar
    46    41    48   ar
    47    41    42    1
    48    43    47    1
    49    43    49    1
    50    43    44    1
    51    45    46    1
    52    47    48   ar
    53    49    51    1
    54    49    52    1
    55    49    50    1
    56    51    58   ar
    57    51    60   ar
    58    52    53    1
    59    52    54    1
    60    52    55    1
    61    56    62   ar
    62    56    64   ar
    63    56    57    1
    64    58    64   ar
    65    58    59    1
    66    60    62   ar
    67    60    61    1
    68    62    63    1
    69    64    65    1
@<TRIPOS>SUBSTRUCTURE
     1 RES1        1 GROUP             0 ****  ****    0  
@<TRIPOS>MOLECULE
LIGAND_00222
    65    69     1     0     0
SMALL
USER_CHARGES
****
Generated from the CSD

@<TRIPOS>ATOM
     1 C1      -1.1832  -4.1194 -11.6786   C.ar      1 RES1   0.0000
     2 H2      -0.6120  -4.8365 -11.0990   H         1 RES1   0.0000
     3 C3      -2.6057  -2.2606 -13.1460   C.ar      1 RES1   0.0000
     4 H4      -3.1573  -1.5224 -13.7188   H         1 RES1   0.0000
     5 C5      -1.6102  -4.4591 -12.9588   C.ar      1 RES1   0.0000
     6 C6      -1.4673  -2.8813 -11.1299   C.ar      1 RES1   0.0000
     7 H7      -1.1384  -2.6291 -10.1273   H         1 RES1   0.0000
     8 C8      -2.1705  -1.9826 -11.8816   C.ar      1 RES1   0.0000
     9 C9      -2.3268  -3.5063 -13.6775   C.ar      1 RES1   0.0000
    10 H10     -2.6804  -3.7410 -14.6750   H         1 RES1   0.0000
    11 C11     -1.3069  -5.7948 -13.5680   C.2       1 RES1   0.0000
    12 F12     -2.4488  -0.7610 -11.3505   F         1 RES1   0.0000
    13 N13     -1.1418  -7.9499 -14.0886   N.am      1 RES1   0.0000
    14 C14     -1.2782  -9.4440 -14.1648   C.3       1 RES1   0.0000
    15 H15     -0.7483  -9.7868 -15.0522   H         1 RES1   0.0000
    16 C16      0.0070  -7.7510 -16.3288   C.3       1 RES1   0.0000
    17 H17      0.8372  -7.1656 -16.7186   H         1 RES1   0.0000
    18 H18      0.3461  -8.7771 -16.2026   H         1 RES1   0.0000
    19 H19     -0.7898  -7.7456 -17.0696   H         1 RES1   0.0000
    20 C20     -0.5870  -5.9122 -14.7311   C.2       1 RES1   0.0000
    21 C21      0.0604  -4.8376 -15.5265   C.ar      1 RES1   0.0000
    22 O22     -2.3011  -7.5223 -12.2003   O.2       1 RES1   0.0000
    23 C23     -1.6582  -7.1153 -13.1592   C.2       1 RES1   0.0000
    24 N24     -0.4649  -7.1994 -15.0582   N.pl3     1 RES1   0.0000
    25 C25     -0.7441 -11.6183 -13.0185   C.3       1 RES1   0.0000
    26 H26     -0.3198 -12.0562 -12.1162   H         1 RES1   0.0000
    27 H27     -0.1968 -11.9780 -13.8886   H         1 RES1   0.0000
    28 C28     -2.8403 -11.4042 -14.3271   C.3       1 RES1   0.0000
    29 H29     -2.3549 -11.7695 -15.2309   H         1 RES1   0.0000
    30 H30     -3.8913 -11.6889 -14.3392   H         1 RES1   0.0000
    31 C31     -2.7344  -9.8873 -14.2818   C.3       1 RES1   0.0000
    32 H32     -3.1605  -9.4731 -15.1943   H         1 RES1   0.0000
    33 H33     -3.2896  -9.5171 -13.4212   H         1 RES1   0.0000
    34 C34     -0.6368 -10.1051 -12.9442   C.3       1 RES1   0.0000
    35 H35     -1.1426  -9.7570 -12.0449   H         1 RES1   0.0000
    36 H36      0.4148  -9.8255 -12.9005   H         1 RES1   0.0000
    37 N37     -2.1809 -12.0154 -13.1358   N.4       1 RES1   1.0000
    38 H38     -2.6723 -11.7145 -12.3002   H         1 RES1   0.0000
    39 H39     -2.2352 -13.0258 -13.2148   H         1 RES1   0.0000
    40 N40      0.6498  -3.8488 -14.8362   N.ar      1 RES1   0.0000
    41 C41      0.6755  -3.7756 -17.5391   C.ar      1 RES1   0.0000
    42 H42      0.6871  -3.7557 -18.6239   H         1 RES1   0.0000
    43 N43      1.7873  -1.8578 -14.8554   N.pl3     1 RES1   0.0000
    44 H44      1.7067  -1.8703 -13.8387   H         1 RES1   0.0000
    45 C45      0.0524  -4.8367 -16.9137   C.ar      1 RES1   0.0000
    46 H46     -0.4228  -5.6305 -17.4804   H         1 RES1   0.0000
    47 C47      1.2159  -2.8584 -15.5445   C.ar      1 RES1   0.0000
    48 N48      1.2653  -2.7688 -16.8816   N.ar      1 RES1   0.0000
    49 C49      2.4638  -0.7181 -15.4743   C.3       1 RES1   0.0000
    50 H50      1.7388  -0.1755 -16.1006   H         1 RES1   0.0000
    51 C51      3.6312  -1.1416 -16.3440   C.ar      1 RES1   0.0000
    52 C52      2.9275   0.2076 -14.3556   C.3       1 RES1   0.0000
    53 H53      3.4115   1.0929 -14.7626   H         1 RES1   0.0000
    54 H54      2.0860   0.5312 -13.7466   H         1 RES1   0.0000
    55 H55      3.6392  -0.2995 -13.7076   H         1 RES1   0.0000
    56 C56      5.7829  -1.9263 -17.9298   C.ar      1 RES1   0.0000
    57 H57      6.6205  -2.2325 -18.5477   H         1 RES1   0.0000
    58 C58      4.6967  -1.8431 -15.7986   C.ar      1 RES1   0.0000
    59 H59      4.6918  -2.0885 -14.7417   H         1 RES1   0.0000
    60 C60      3.6630  -0.8374 -17.6980   C.ar      1 RES1   0.0000
    61 H61      2.8420  -0.2880 -18.1466   H         1 RES1   0.0000
    62 C62      4.7331  -1.2284 -18.4851   C.ar      1 RES1   0.0000
    63 H63      4.7440  -0.9842 -19.5421   H         1 RES1   0.0000
    64 C64      5.7654  -2.2340 -16.5872   C.ar      1 RES1   0.0000
    65 H65      6.5905  -2.7836 -16.1466   H         1 RES1   0.0000
@<TRIPOS>BOND
     1     1     5   ar
     2     1     6   ar
     3     1     2    1
     4     3     8   ar
     5     3     9   ar
     6     3     4    1
     7     5     9   ar
     8     5    11    1
     9     6     8   ar
    10     6     7    1
    11     8    12    1
    12     9    10    1
    13    11    20    2
    14    11    23    1
    15    13    14    1
    16    13    23   am
    17    13    24    1
    18    14    31    1
    19    14    34    1
    20    14    15    1
    21    16    24    1
    22    16    17    1
    23    16    18    1
    24    16    19    1
    25    20    21    1
    26    20    24    1
    27    21    40   ar
    28    21    45   ar
    29    22    23    2
    30    25    34    1
    31    25    37    1
    32    25    26    1
    33    25    27    1
    34    28    31    1
    35    28    37    1
    36    28    29    1
    37    28    30    1
    38    31    32    1
    39    31    33    1
    40    34    35    1
    41    34    36    1
    42    37    38    1
    43    37    39    1
    44    40    47   ar
    45    41    45   ar
    46    41    48   ar
    47    41    42    1
    48    43    47    1
    49    43    49    1
    50    43    44    1
    51    45    46    1
    52    47    48   ar
    53    49    51    1
    54    49    52    1
    55    49    50    1
    56    51    58   ar
    57    51    60   ar
    58    52    53    1
    59    52    54    1
    60    52    55    1
    61    56    62   ar
    62    56    64   ar
    63    56    57    1
    64    58    64   ar
    65    58    59    1
    66    60    62   ar
    67    60    61    1
    68    62    63    1
    69    64    65    1
@<TRIPOS>SUBSTRUCTURE
     1 RES1        1 GROUP             0 ****  ****    0  
@<TRIPOS>MOLECULE
LIGAND_00223
    65    69     1     0     0
SMALL
USER_CHARGES
****
Generated from the CSD

@<TRIPOS>ATOM
     1 C1      -0.1859  -3.4034 -14.3997   C.ar      1 RES1   0.0000
     2 H2      -1.1635  -3.3364 -13.9346   H         1 RES1   0.0000
     3 C3       2.3202  -3.5427 -15.5539   C.ar      1 RES1   0.0000
     4 H4       3.3077  -3.5887 -16.0009   H         1 RES1   0.0000
     5 C5       0.3912  -4.6534 -14.6026   C.ar      1 RES1   0.0000
     6 C6       0.4646  -2.2409 -14.7742   C.ar      1 RES1   0.0000
     7 H7       0.0025  -1.2715 -14.6208   H         1 RES1   0.0000
     8 C8       1.7041  -2.3426 -15.3402   C.ar      1 RES1   0.0000
     9 C9       1.6536  -4.6975 -15.1876   C.ar      1 RES1   0.0000
    10 H10      2.1288  -5.6554 -15.3662   H         1 RES1   0.0000
    11 C11     -0.2996  -5.9211 -14.1988   C.2       1 RES1   0.0000
    12 F12      2.3521  -1.2032 -15.7060   F         1 RES1   0.0000
    13 N13     -1.2087  -7.9626 -14.1221   N.am      1 RES1   0.0000
    14 C14     -1.4243  -9.4443 -14.2421   C.3       1 RES1   0.0000
    15 H15     -0.8832  -9.7945 -15.1199   H         1 RES1   0.0000
    16 C16     -2.8708  -7.5643 -12.3657   C.3       1 RES1   0.0000
    17 H17     -3.1070  -6.8510 -11.5788   H         1 RES1   0.0000
    18 H18     -3.6517  -7.5058 -13.1211   H         1 RES1   0.0000
    19 H19     -2.8892  -8.5633 -11.9352   H         1 RES1   0.0000
    20 C20     -1.0688  -6.0097 -13.0848   C.2       1 RES1   0.0000
    21 C21     -1.4087  -4.9383 -12.1137   C.ar      1 RES1   0.0000
    22 O22      0.2134  -7.5852 -15.8990   O.2       1 RES1   0.0000
    23 C23     -0.3484  -7.1867 -14.8871   C.2       1 RES1   0.0000
    24 N24     -1.5602  -7.2771 -12.9497   N.3       1 RES1   0.0000
    25 C25     -1.0511 -11.6724 -13.1361   C.3       1 RES1   0.0000
    26 H26     -0.6834 -12.1553 -12.2319   H         1 RES1   0.0000
    27 H27     -0.4941 -12.0407 -13.9964   H         1 RES1   0.0000
    28 C28     -3.0850 -11.3098 -14.5086   C.3       1 RES1   0.0000
    29 H29     -2.5890 -11.6794 -15.4048   H         1 RES1   0.0000
    30 H30     -4.1491 -11.5350 -14.5635   H         1 RES1   0.0000
    31 C31     -2.8976  -9.8027 -14.4198   C.3       1 RES1   0.0000
    32 H32     -3.2681  -9.3432 -15.3349   H         1 RES1   0.0000
    33 H33     -3.4615  -9.4232 -13.5690   H         1 RES1   0.0000
    34 C34     -0.8634 -10.1699 -13.0185   C.3       1 RES1   0.0000
    35 H35     -1.3806  -9.8161 -12.1278   H         1 RES1   0.0000
    36 H36      0.1998  -9.9505 -12.9320   H         1 RES1   0.0000
    37 N37     -2.5025 -11.9857 -13.3122   N.4       1 RES1   1.0000
    38 H38     -3.0056 -11.6783 -12.4860   H         1 RES1   0.0000
    39 H39     -2.6094 -12.9893 -13.4195   H         1 RES1   0.0000
    40 N40     -2.7044  -4.6015 -12.0170   N.ar      1 RES1   0.0000
    41 C41     -0.8828  -3.3107 -10.4916   C.ar      1 RES1   0.0000
    42 H42     -0.1470  -2.8011  -9.8782   H         1 RES1   0.0000
    43 N43     -4.3133  -3.2636 -11.0790   N.pl3     1 RES1   0.0000
    44 H44     -4.9730  -3.7133 -11.7138   H         1 RES1   0.0000
    45 C45     -0.4438  -4.3003 -11.3480   C.ar      1 RES1   0.0000
    46 H46      0.6060  -4.5644 -11.4202   H         1 RES1   0.0000
    47 C47     -3.0204  -3.6162 -11.1612   C.ar      1 RES1   0.0000
    48 N48     -2.1657  -2.9439 -10.3765   N.ar      1 RES1   0.0000
    49 C49     -4.8253  -2.2297 -10.1799   C.3       1 RES1   0.0000
    50 H50     -4.0401  -1.4726 -10.0300   H         1 RES1   0.0000
    51 C51     -5.2240  -2.7859  -8.8271   C.ar      1 RES1   0.0000
    52 C52     -6.0138  -1.5670 -10.8666   C.3       1 RES1   0.0000
    53 H53     -6.4160  -0.7638 -10.2527   H         1 RES1   0.0000
    54 H54     -5.7216  -1.1460 -11.8263   H         1 RES1   0.0000
    55 H55     -6.8083  -2.2895 -11.0415   H         1 RES1   0.0000
    56 C56     -5.9712  -3.8033  -6.3437   C.ar      1 RES1   0.0000
    57 H57     -6.2622  -4.2002  -5.3768   H         1 RES1   0.0000
    58 C58     -6.5310  -2.6698  -8.3761   C.ar      1 RES1   0.0000
    59 H59     -7.2706  -2.1763  -8.9980   H         1 RES1   0.0000
    60 C60     -4.2963  -3.4188  -8.0111   C.ar      1 RES1   0.0000
    61 H61     -3.2679  -3.5199  -8.3417   H         1 RES1   0.0000
    62 C62     -4.6693  -3.9243  -6.7771   C.ar      1 RES1   0.0000
    63 H63     -3.9335  -4.4171  -6.1503   H         1 RES1   0.0000
    64 C64     -6.9023  -3.1765  -7.1423   C.ar      1 RES1   0.0000
    65 H65     -7.9286  -3.0795  -6.8042   H         1 RES1   0.0000
@<TRIPOS>BOND
     1     1     5   ar
     2     1     6   ar
     3     1     2    1
     4     3     8   ar
     5     3     9   ar
     6     3     4    1
     7     5     9   ar
     8     5    11    1
     9     6     8   ar
    10     6     7    1
    11     8    12    1
    12     9    10    1
    13    11    20    2
    14    11    23    1
    15    13    14    1
    16    13    23   am
    17    13    24    1
    18    14    31    1
    19    14    34    1
    20    14    15    1
    21    16    24    1
    22    16    17    1
    23    16    18    1
    24    16    19    1
    25    20    21    1
    26    20    24    1
    27    21    40   ar
    28    21    45   ar
    29    22    23    2
    30    25    34    1
    31    25    37    1
    32    25    26    1
    33    25    27    1
    34    28    31    1
    35    28    37    1
    36    28    29    1
    37    28    30    1
    38    31    32    1
    39    31    33    1
    40    34    35    1
    41    34    36    1
    42    37    38    1
    43    37    39    1
    44    40    47   ar
    45    41    45   ar
    46    41    48   ar
    47    41    42    1
    48    43    47    1
    49    43    49    1
    50    43    44    1
    51    45    46    1
    52    47    48   ar
    53    49    51    1
    54    49    52    1
    55    49    50    1
    56    51    58   ar
    57    51    60   ar
    58    52    53    1
    59    52    54    1
    60    52    55    1
    61    56    62   ar
    62    56    64   ar
    63    56    57    1
    64    58    64   ar
    65    58    59    1
    66    60    62   ar
    67    60    61    1
    68    62    63    1
    69    64    65    1
@<TRIPOS>SUBSTRUCTURE
     1 RES1        1 GROUP             0 ****  ****    0  
@<TRIPOS>MOLECULE
LIGAND_00224
    65    69     1     0     0
SMALL
USER_CHARGES
****
Generated from the CSD

@<TRIPOS>ATOM
     1 C1      -3.0876  -4.1374 -15.8895   C.ar      1 RES1   0.0000
     2 H2      -3.9319  -4.8028 -15.7454   H         1 RES1   0.0000
     3 C3      -0.9626  -2.4073 -16.2400   C.ar      1 RES1   0.0000
     4 H4      -0.1348  -1.7191 -16.3752   H         1 RES1   0.0000
     5 C5      -1.8412  -4.4938 -15.3832   C.ar      1 RES1   0.0000
     6 C6      -3.2748  -2.9469 -16.5694   C.ar      1 RES1   0.0000
     7 H7      -4.2481  -2.6822 -16.9688   H         1 RES1   0.0000
     8 C8      -2.2049  -2.1111 -16.7242   C.ar      1 RES1   0.0000
     9 C9      -0.7859  -3.6063 -15.5743   C.ar      1 RES1   0.0000
    10 H10      0.1998  -3.8563 -15.1987   H         1 RES1   0.0000
    11 C11     -1.6240  -5.7782 -14.6413   C.2       1 RES1   0.0000
    12 F12     -2.3828  -0.9361 -17.3871   F         1 RES1   0.0000
    13 N13     -1.2298  -7.9383 -14.1569   N.am      1 RES1   0.0000
    14 C14     -1.4873  -9.4110 -14.3030   C.3       1 RES1   0.0000
    15 H15     -1.2004  -9.7058 -15.3113   H         1 RES1   0.0000
    16 C16     -0.8692  -7.6869 -11.7804   C.3       1 RES1   0.0000
    17 H17     -1.4396  -8.4068 -11.1972   H         1 RES1   0.0000
    18 H18      0.0768  -8.1482 -12.0562   H         1 RES1   0.0000
    19 H19     -0.6562  -6.8288 -11.1464   H         1 RES1   0.0000
    20 C20     -1.7513  -5.9390 -13.3057   C.2       1 RES1   0.0000
    21 C21     -2.0254  -4.9138 -12.2663   C.ar      1 RES1   0.0000
    22 O22     -1.1900  -7.3970 -16.3897   O.2       1 RES1   0.0000
    23 C23     -1.3090  -7.0550 -15.2204   C.2       1 RES1   0.0000
    24 N24     -1.6146  -7.2774 -12.9713   N.3       1 RES1   0.0000
    25 C25     -0.8635 -11.7001 -13.4675   C.3       1 RES1   0.0000
    26 H26     -0.2769 -12.2349 -12.7220   H         1 RES1   0.0000
    27 H27     -0.5569 -12.0139 -14.4642   H         1 RES1   0.0000
    28 C28     -3.1822 -11.2634 -14.2323   C.3       1 RES1   0.0000
    29 H29     -2.9438 -11.5767 -15.2476   H         1 RES1   0.0000
    30 H30     -4.2259 -11.4889 -14.0184   H         1 RES1   0.0000
    31 C31     -2.9597  -9.7637 -14.1073   C.3       1 RES1   0.0000
    32 H32     -3.5522  -9.2515 -14.8640   H         1 RES1   0.0000
    33 H33     -3.2754  -9.4380 -13.1173   H         1 RES1   0.0000
    34 C34     -0.6332 -10.2066 -13.3151   C.3       1 RES1   0.0000
    35 H35     -0.8937  -9.9088 -12.3004   H         1 RES1   0.0000
    36 H36      0.4179  -9.9888 -13.4987   H         1 RES1   0.0000
    37 N37     -2.3138 -12.0077 -13.2734   N.4       1 RES1   1.0000
    38 H38     -2.5782 -11.7524 -12.3273   H         1 RES1   0.0000
    39 H39     -2.4574 -13.0034 -13.4078   H         1 RES1   0.0000
    40 N40     -1.5622  -3.6765 -12.5033   N.ar      1 RES1   0.0000
    41 C41     -2.8928  -4.1749 -10.2027   C.ar      1 RES1   0.0000
    42 H42     -3.4327  -4.3807  -9.2843   H         1 RES1   0.0000
    43 N43     -1.3003  -1.5147 -11.7849   N.pl3     1 RES1   0.0000
    44 H44     -0.7433  -1.3655 -12.6262   H         1 RES1   0.0000
    45 C45     -2.7132  -5.2096 -11.0985   C.ar      1 RES1   0.0000
    46 H46     -3.0900  -6.2069 -10.8971   H         1 RES1   0.0000
    47 C47     -1.7815  -2.7475 -11.5589   C.ar      1 RES1   0.0000
    48 N48     -2.4367  -2.9317 -10.4034   N.ar      1 RES1   0.0000
    49 C49     -1.4715  -0.3873 -10.8687   C.3       1 RES1   0.0000
    50 H50     -1.0003  -0.6405  -9.9064   H         1 RES1   0.0000
    51 C51     -2.9310  -0.0609 -10.6204   C.ar      1 RES1   0.0000
    52 C52     -0.7412   0.8095 -11.4668   C.3       1 RES1   0.0000
    53 H53     -0.8088   1.6722 -10.8073   H         1 RES1   0.0000
    54 H54      0.3117   0.5832 -11.6217   H         1 RES1   0.0000
    55 H55     -1.1737   1.0828 -12.4270   H         1 RES1   0.0000
    56 C56     -5.6164   0.5337 -10.1784   C.ar      1 RES1   0.0000
    57 H57     -6.6624   0.7646 -10.0058   H         1 RES1   0.0000
    58 C58     -3.8827  -0.3031 -11.6006   C.ar      1 RES1   0.0000
    59 H59     -3.5770  -0.7288 -12.5506   H         1 RES1   0.0000
    60 C60     -3.3474   0.4871  -9.4149   C.ar      1 RES1   0.0000
    61 H61     -2.6211   0.6870  -8.6341   H         1 RES1   0.0000
    62 C62     -4.6827   0.7817  -9.1965   C.ar      1 RES1   0.0000
    63 H63     -4.9937   1.2091  -8.2491   H         1 RES1   0.0000
    64 C64     -5.2174  -0.0086 -11.3801   C.ar      1 RES1   0.0000
    65 H65     -5.9501  -0.2053 -12.1556   H         1 RES1   0.0000
@<TRIPOS>BOND
     1     1     5   ar
     2     1     6   ar
     3     1     2    1
     4     3     8   ar
     5     3     9   ar
     6     3     4    1
     7     5     9   ar
     8     5    11    1
     9     6     8   ar
    10     6     7    1
    11     8    12    1
    12     9    10    1
    13    11    20    2
    14    11    23    1
    15    13    14    1
    16    13    23   am
    17    13    24    1
    18    14    31    1
    19    14    34    1
    20    14    15    1
    21    16    24    1
    22    16    17    1
    23    16    18    1
    24    16    19    1
    25    20    21    1
    26    20    24    1
    27    21    40   ar
    28    21    45   ar
    29    22    23    2
    30    25    34    1
    31    25    37    1
    32    25    26    1
    33    25    27    1
    34    28    31    1
    35    28    37    1
    36    28    29    1
    37    28    30    1
    38    31    32    1
    39    31    33    1
    40    34    35    1
    41    34    36    1
    42    37    38    1
    43    37    39    1
    44    40    47   ar
    45    41    45   ar
    46    41    48   ar
    47    41    42    1
    48    43    47    1
    49    43    49    1
    50    43    44    1
    51    45    46    1
    52    47    48   ar
    53    49    51    1
    54    49    52    1
    55    49    50    1
    56    51    58   ar
    57    51    60   ar
    58    52    53    1
    59    52    54    1
    60    52    55    1
    61    56    62   ar
    62    56    64   ar
    63    56    57    1
    64    58    64   ar
    65    58    59    1
    66    60    62   ar
    67    60    61    1
    68    62    63    1
    69    64    65    1
@<TRIPOS>SUBSTRUCTURE
     1 RES1        1 GROUP             0 ****  ****    0  
@<TRIPOS>MOLECULE
LIGAND_00225
    65    69     1     0     0
SMALL
USER_CHARGES
****
Generated from the CSD

@<TRIPOS>ATOM
     1 C1       0.7310  -4.3149 -15.8355   C.ar      1 RES1   0.0000
     2 H2       0.3416  -4.9309 -16.6388   H         1 RES1   0.0000
     3 C3       1.7033  -2.7085 -13.8091   C.ar      1 RES1   0.0000
     4 H4       2.0818  -2.0685 -13.0190   H         1 RES1   0.0000
     5 C5       0.5128  -4.6947 -14.5145   C.ar      1 RES1   0.0000
     6 C6       1.4309  -3.1626 -16.1469   C.ar      1 RES1   0.0000
     7 H7       1.6043  -2.8798 -17.1798   H         1 RES1   0.0000
     8 C8       1.8969  -2.3877 -15.1225   C.ar      1 RES1   0.0000
     9 C9       1.0141  -3.8698 -13.5115   C.ar      1 RES1   0.0000
    10 H10      0.8678  -4.1400 -12.4719   H         1 RES1   0.0000
    11 C11     -0.2467  -5.9380 -14.1616   C.2       1 RES1   0.0000
    12 F12      2.5813  -1.2501 -15.4214   F         1 RES1   0.0000
    13 N13     -1.2407  -7.9410 -14.1571   N.am      1 RES1   0.0000
    14 C14     -1.5107  -9.4109 -14.3093   C.3       1 RES1   0.0000
    15 H15     -0.9492  -9.7701 -15.1704   H         1 RES1   0.0000
    16 C16     -2.9635  -7.4980 -12.4713   C.3       1 RES1   0.0000
    17 H17     -3.2163  -6.7694 -11.7038   H         1 RES1   0.0000
    18 H18     -3.7035  -7.4236 -13.2655   H         1 RES1   0.0000
    19 H19     -3.0345  -8.4913 -12.0333   H         1 RES1   0.0000
    20 C20     -1.0688  -6.0097 -13.0848   C.2       1 RES1   0.0000
    21 C21     -1.4087  -4.9383 -12.1137   C.ar      1 RES1   0.0000
    22 O22      0.2751  -7.5989 -15.8622   O.2       1 RES1   0.0000
    23 C23     -0.3156  -7.1911 -14.8707   C.2       1 RES1   0.0000
    24 N24     -1.6170  -7.2574 -12.9913   N.3       1 RES1   0.0000
    25 C25     -1.2723 -11.6680 -13.2252   C.3       1 RES1   0.0000
    26 H26     -0.9611 -12.1785 -12.3150   H         1 RES1   0.0000
    27 H27     -0.6964 -12.0463 -14.0685   H         1 RES1   0.0000
    28 C28     -3.2330 -11.2029 -14.6713   C.3       1 RES1   0.0000
    29 H29     -2.7165 -11.5795 -15.5530   H         1 RES1   0.0000
    30 H30     -4.3022 -11.3836 -14.7721   H         1 RES1   0.0000
    31 C31     -2.9888  -9.7062 -14.5510   C.3       1 RES1   0.0000
    32 H32     -3.3033  -9.2188 -15.4727   H         1 RES1   0.0000
    33 H33     -3.5709  -9.3163 -13.7173   H         1 RES1   0.0000
    34 C34     -1.0292 -10.1763 -13.0761   C.3       1 RES1   0.0000
    35 H35     -1.5672  -9.8145 -12.2012   H         1 RES1   0.0000
    36 H36      0.0376 -10.0018 -12.9440   H         1 RES1   0.0000
    37 N37     -2.7268 -11.9192 -13.4637   N.4       1 RES1   1.0000
    38 H38     -3.2501 -11.6035 -12.6533   H         1 RES1   0.0000
    39 H39     -2.8696 -12.9160 -13.5913   H         1 RES1   0.0000
    40 N40     -1.0980  -5.1692 -10.8285   N.ar      1 RES1   0.0000
    41 C41     -2.3055  -2.8456 -11.5027   C.ar      1 RES1   0.0000
    42 H42     -2.7847  -1.9129 -11.7813   H         1 RES1   0.0000
    43 N43     -1.1330  -4.4573  -8.6489   N.pl3     1 RES1   0.0000
    44 H44     -0.7251  -5.3612  -8.4102   H         1 RES1   0.0000
    45 C45     -2.0280  -3.7587 -12.5000   C.ar      1 RES1   0.0000
    46 H46     -2.2846  -3.5636 -13.5360   H         1 RES1   0.0000
    47 C47     -1.4239  -4.2187  -9.9377   C.ar      1 RES1   0.0000
    48 N48     -2.0171  -3.0474 -10.2104   N.ar      1 RES1   0.0000
    49 C49     -1.4225  -3.5274  -7.5576   C.3       1 RES1   0.0000
    50 H50     -2.3445  -2.9763  -7.7993   H         1 RES1   0.0000
    51 C51     -0.3049  -2.5264  -7.3395   C.ar      1 RES1   0.0000
    52 C52     -1.6660  -4.3526  -6.2994   C.3       1 RES1   0.0000
    53 H53     -1.9189  -3.7098  -5.4589   H         1 RES1   0.0000
    54 H54     -2.4846  -5.0537  -6.4481   H         1 RES1   0.0000
    55 H55     -0.7769  -4.9213  -6.0349   H         1 RES1   0.0000
    56 C56      1.7405  -0.6808  -6.9271   C.ar      1 RES1   0.0000
    57 H57      2.5375   0.0375  -6.7661   H         1 RES1   0.0000
    58 C58     -0.4058  -1.5652  -6.3440   C.ar      1 RES1   0.0000
    59 H59     -1.2922  -1.5319  -5.7192   H         1 RES1   0.0000
    60 C60      0.8379  -2.5459  -8.1271   C.ar      1 RES1   0.0000
    61 H61      0.9385  -3.2871  -8.9129   H         1 RES1   0.0000
    62 C62      1.8540  -1.6280  -7.9208   C.ar      1 RES1   0.0000
    63 H63      2.7418  -1.6556  -8.5437   H         1 RES1   0.0000
    64 C64      0.6114  -0.6488  -6.1386   C.ar      1 RES1   0.0000
    65 H65      0.5188   0.0958  -5.3550   H         1 RES1   0.0000
@<TRIPOS>BOND
     1     1     5   ar
     2     1     6   ar
     3     1     2    1
     4     3     8   ar
     5     3     9   ar
     6     3     4    1
     7     5     9   ar
     8     5    11    1
     9     6     8   ar
    10     6     7    1
    11     8    12    1
    12     9    10    1
    13    11    20    2
    14    11    23    1
    15    13    14    1
    16    13    23   am
    17    13    24    1
    18    14    31    1
    19    14    34    1
    20    14    15    1
    21    16    24    1
    22    16    17    1
    23    16    18    1
    24    16    19    1
    25    20    21    1
    26    20    24    1
    27    21    40   ar
    28    21    45   ar
    29    22    23    2
    30    25    34    1
    31    25    37    1
    32    25    26    1
    33    25    27    1
    34    28    31    1
    35    28    37    1
    36    28    29    1
    37    28    30    1
    38    31    32    1
    39    31    33    1
    40    34    35    1
    41    34    36    1
    42    37    38    1
    43    37    39    1
    44    40    47   ar
    45    41    45   ar
    46    41    48   ar
    47    41    42    1
    48    43    47    1
    49    43    49    1
    50    43    44    1
    51    45    46    1
    52    47    48   ar
    53    49    51    1
    54    49    52    1
    55    49    50    1
    56    51    58   ar
    57    51    60   ar
    58    52    53    1
    59    52    54    1
    60    52    55    1
    61    56    62   ar
    62    56    64   ar
    63    56    57    1
    64    58    64   ar
    65    58    59    1
    66    60    62   ar
    67    60    61    1
    68    62    63    1
    69    64    65    1
@<TRIPOS>SUBSTRUCTURE
     1 RES1        1 GROUP             0 ****  ****    0  
@<TRIPOS>MOLECULE
LIGAND_00226
    65    69     1     0     0
SMALL
USER_CHARGES
****
Generated from the CSD

@<TRIPOS>ATOM
     1 C1      -1.5321  -4.6313 -17.1693   C.ar      1 RES1   0.0000
     2 H2      -2.0628  -5.4947 -17.5560   H         1 RES1   0.0000
     3 C3      -0.2155  -2.4050 -16.1988   C.ar      1 RES1   0.0000
     4 H4       0.2939  -1.5240 -15.8225   H         1 RES1   0.0000
     5 C5      -1.0482  -4.6533 -15.8647   C.ar      1 RES1   0.0000
     6 C6      -1.3555  -3.5270 -17.9841   C.ar      1 RES1   0.0000
     7 H7      -1.7280  -3.5229 -19.0030   H         1 RES1   0.0000
     8 C8      -0.7026  -2.4403 -17.4743   C.ar      1 RES1   0.0000
     9 C9      -0.3867  -3.5203 -15.3994   C.ar      1 RES1   0.0000
    10 H10      0.0089  -3.5068 -14.3902   H         1 RES1   0.0000
    11 C11     -1.2351  -5.8408 -14.9691   C.2       1 RES1   0.0000
    12 F12     -0.5301  -1.3485 -18.2681   F         1 RES1   0.0000
    13 N13     -1.1833  -7.9253 -14.1274   N.am      1 RES1   0.0000
    14 C14     -1.4062  -9.4084 -14.2119   C.3       1 RES1   0.0000
    15 H15     -1.0483  -9.7490 -15.1824   H         1 RES1   0.0000
    16 C16     -1.9109  -7.3975 -11.8840   C.3       1 RES1   0.0000
    17 H17     -2.4408  -6.6402 -11.3098   H         1 RES1   0.0000
    18 H18     -2.3300  -8.3691 -11.6308   H         1 RES1   0.0000
    19 H19     -0.8672  -7.3876 -11.5772   H         1 RES1   0.0000
    20 C20     -1.9509  -5.8488 -13.8230   C.2       1 RES1   0.0000
    21 C21     -2.6195  -4.7148 -13.1347   C.ar      1 RES1   0.0000
    22 O22     -0.1308  -7.6436 -16.1505   O.2       1 RES1   0.0000
    23 C23     -0.7453  -7.1712 -15.2031   C.2       1 RES1   0.0000
    24 N24     -2.0303  -7.1379 -13.3192   N.3       1 RES1   0.0000
    25 C25     -0.8011 -11.6383 -13.2177   C.3       1 RES1   0.0000
    26 H26     -0.2564 -12.1221 -12.4083   H         1 RES1   0.0000
    27 H27     -0.4241 -11.9970 -14.1743   H         1 RES1   0.0000
    28 C28     -3.0711 -11.2882 -14.1541   C.3       1 RES1   0.0000
    29 H29     -2.7609 -11.6487 -15.1338   H         1 RES1   0.0000
    30 H30     -4.1228 -11.5233 -13.9972   H         1 RES1   0.0000
    31 C31     -2.8822  -9.7799 -14.0944   C.3       1 RES1   0.0000
    32 H32     -3.4318  -9.3195 -14.9141   H         1 RES1   0.0000
    33 H33     -3.2682  -9.4100 -13.1456   H         1 RES1   0.0000
    34 C34     -0.6062 -10.1346 -13.1297   C.3       1 RES1   0.0000
    35 H35     -0.9382  -9.7902 -12.1514   H         1 RES1   0.0000
    36 H36      0.4509  -9.9056 -13.2557   H         1 RES1   0.0000
    37 N37     -2.2558 -11.9645 -13.1026   N.4       1 RES1   1.0000
    38 H38     -2.5864 -11.6660 -12.1906   H         1 RES1   0.0000
    39 H39     -2.3736 -12.9685 -13.1933   H         1 RES1   0.0000
    40 N40     -3.9583  -4.7648 -13.0522   N.ar      1 RES1   0.0000
    41 C41     -2.6448  -2.6452 -12.0064   C.ar      1 RES1   0.0000
    42 H42     -2.1107  -1.8006 -11.5836   H         1 RES1   0.0000
    43 N43     -5.9160  -3.7709 -12.3906   N.pl3     1 RES1   0.0000
    44 H44     -6.3908  -3.0368 -11.8653   H         1 RES1   0.0000
    45 C45     -1.9090  -3.6450 -12.6101   C.ar      1 RES1   0.0000
    46 H46     -0.8271  -3.5948 -12.6732   H         1 RES1   0.0000
    47 C47     -4.5755  -3.7326 -12.4550   C.ar      1 RES1   0.0000
    48 N48     -3.9808  -2.6591 -11.9144   N.ar      1 RES1   0.0000
    49 C49     -6.7346  -4.8340 -12.9733   C.3       1 RES1   0.0000
    50 H50     -6.4268  -5.7961 -12.5352   H         1 RES1   0.0000
    51 C51     -6.5842  -4.9194 -14.4795   C.ar      1 RES1   0.0000
    52 C52     -8.1843  -4.5660 -12.5864   C.3       1 RES1   0.0000
    53 H53     -8.8555  -5.2425 -13.1113   H         1 RES1   0.0000
    54 H54     -8.3320  -4.7041 -11.5174   H         1 RES1   0.0000
    55 H55     -8.4668  -3.5459 -12.8383   H         1 RES1   0.0000
    56 C56     -6.3187  -5.0655 -17.2487   C.ar      1 RES1   0.0000
    57 H57     -6.2147  -5.1220 -18.3272   H         1 RES1   0.0000
    58 C58     -7.3608  -4.1246 -15.3102   C.ar      1 RES1   0.0000
    59 H59     -8.0804  -3.4384 -14.8760   H         1 RES1   0.0000
    60 C60     -5.6732  -5.7912 -15.0601   C.ar      1 RES1   0.0000
    61 H61     -5.0562  -6.4240 -14.4308   H         1 RES1   0.0000
    62 C62     -5.5421  -5.8625 -16.4367   C.ar      1 RES1   0.0000
    63 H63     -4.8255  -6.5481 -16.8765   H         1 RES1   0.0000
    64 C64     -7.2278  -4.1967 -16.6864   C.ar      1 RES1   0.0000
    65 H65     -7.8410  -3.5674 -17.3230   H         1 RES1   0.0000
@<TRIPOS>BOND
     1     1     5   ar
     2     1     6   ar
     3     1     2    1
     4     3     8   ar
     5     3     9   ar
     6     3     4    1
     7     5     9   ar
     8     5    11    1
     9     6     8   ar
    10     6     7    1
    11     8    12    1
    12     9    10    1
    13    11    20    2
    14    11    23    1
    15    13    14    1
    16    13    23   am
    17    13    24    1
    18    14    31    1
    19    14    34    1
    20    14    15    1
    21    16    24    1
    22    16    17    1
    23    16    18    1
    24    16    19    1
    25    20    21    1
    26    20    24    1
    27    21    40   ar
    28    21    45   ar
    29    22    23    2
    30    25    34    1
    31    25    37    1
    32    25    26    1
    33    25    27    1
    34    28    31    1
    35    28    37    1
    36    28    29    1
    37    28    30    1
    38    31    32    1
    39    31    33    1
    40    34    35    1
    41    34    36    1
    42    37    38    1
    43    37    39    1
    44    40    47   ar
    45    41    45   ar
    46    41    48   ar
    47    41    42    1
    48    43    47    1
    49    43    49    1
    50    43    44    1
    51    45    46    1
    52    47    48   ar
    53    49    51    1
    54    49    52    1
    55    49    50    1
    56    51    58   ar
    57    51    60   ar
    58    52    53    1
    59    52    54    1
    60    52    55    1
    61    56    62   ar
    62    56    64   ar
    63    56    57    1
    64    58    64   ar
    65    58    59    1
    66    60    62   ar
    67    60    61    1
    68    62    63    1
    69    64    65    1
@<TRIPOS>SUBSTRUCTURE
     1 RES1        1 GROUP             0 ****  ****    0  
@<TRIPOS>MOLECULE
LIGAND_00227
    65    69     1     0     0
SMALL
USER_CHARGES
****
Generated from the CSD

@<TRIPOS>ATOM
     1 C1      -1.7093  -3.8829 -16.3943   C.ar      1 RES1   0.0000
     2 H2      -2.7423  -4.2134 -16.3881   H         1 RES1   0.0000
     3 C3       0.9077  -2.9980 -16.3989   C.ar      1 RES1   0.0000
     4 H4       1.9319  -2.6399 -16.3996   H         1 RES1   0.0000
     5 C5      -0.7576  -4.5980 -15.6735   C.ar      1 RES1   0.0000
     6 C6      -1.3664  -2.7532 -17.1160   C.ar      1 RES1   0.0000
     7 H7      -2.1136  -2.2078 -17.6827   H         1 RES1   0.0000
     8 C8      -0.0643  -2.3392 -17.0963   C.ar      1 RES1   0.0000
     9 C9       0.5544  -4.1333 -15.6929   C.ar      1 RES1   0.0000
    10 H10      1.3219  -4.6708 -15.1477   H         1 RES1   0.0000
    11 C11     -1.1147  -5.8214 -14.8841   C.2       1 RES1   0.0000
    12 F12      0.2791  -1.2258 -17.7993   F         1 RES1   0.0000
    13 N13     -1.2845  -7.9511 -14.1830   N.am      1 RES1   0.0000
    14 C14     -1.5881  -9.4078 -14.3897   C.3       1 RES1   0.0000
    15 H15     -1.1594  -9.7101 -15.3440   H         1 RES1   0.0000
    16 C16     -2.2196  -7.5099 -11.9986   C.3       1 RES1   0.0000
    17 H17     -2.8610  -6.8198 -11.4544   H         1 RES1   0.0000
    18 H18     -2.6138  -8.5152 -11.8652   H         1 RES1   0.0000
    19 H19     -1.2270  -7.4728 -11.5547   H         1 RES1   0.0000
    20 C20     -1.9509  -5.8488 -13.8230   C.2       1 RES1   0.0000
    21 C21     -2.6195  -4.7148 -13.1347   C.ar      1 RES1   0.0000
    22 O22     -0.0011  -7.6219 -16.0604   O.2       1 RES1   0.0000
    23 C23     -0.6854  -7.1659 -15.1537   C.2       1 RES1   0.0000
    24 N24     -2.1646  -7.1572 -13.4178   N.3       1 RES1   0.0000
    25 C25     -1.2190 -11.7312 -13.4996   C.3       1 RES1   0.0000
    26 H26     -0.7855 -12.3003 -12.6785   H         1 RES1   0.0000
    27 H27     -0.7737 -12.0537 -14.4396   H         1 RES1   0.0000
    28 C28     -3.3621 -11.1714 -14.6156   C.3       1 RES1   0.0000
    29 H29     -2.9812 -11.4898 -15.5848   H         1 RES1   0.0000
    30 H30     -4.4364 -11.3447 -14.5731   H         1 RES1   0.0000
    31 C31     -3.0885  -9.6859 -14.4350   C.3       1 RES1   0.0000
    32 H32     -3.5271  -9.1391 -15.2684   H         1 RES1   0.0000
    33 H33     -3.5411  -9.3512 -13.5028   H         1 RES1   0.0000
    34 C34     -0.9423 -10.2525 -13.2907   C.3       1 RES1   0.0000
    35 H35     -1.3457  -9.9486 -12.3259   H         1 RES1   0.0000
    36 H36      0.1341 -10.0875 -13.3023   H         1 RES1   0.0000
    37 N37     -2.6951 -11.9655 -13.5423   N.4       1 RES1   1.0000
    38 H38     -3.0935 -11.7033 -12.6463   H         1 RES1   0.0000
    39 H39     -2.8645 -12.9517 -13.7123   H         1 RES1   0.0000
    40 N40     -2.2823  -4.5050 -11.8525   N.ar      1 RES1   0.0000
    41 C41     -4.1186  -2.8993 -13.0192   C.ar      1 RES1   0.0000
    42 H42     -4.8504  -2.2552 -13.4956   H         1 RES1   0.0000
    43 N43     -2.5788  -3.3011  -9.9235   N.pl3     1 RES1   0.0000
    44 H44     -1.9564  -3.9744  -9.4768   H         1 RES1   0.0000
    45 C45     -3.5567  -3.9128 -13.7692   C.ar      1 RES1   0.0000
    46 H46     -3.8370  -4.0755 -14.8047   H         1 RES1   0.0000
    47 C47     -2.8993  -3.4988 -11.2122   C.ar      1 RES1   0.0000
    48 N48     -3.8118  -2.6675 -11.7363   N.ar      1 RES1   0.0000
    49 C49     -3.1160  -2.2163  -9.1024   C.3       1 RES1   0.0000
    50 H50     -4.2143  -2.2939  -9.0906   H         1 RES1   0.0000
    51 C51     -2.7345  -0.8477  -9.6314   C.ar      1 RES1   0.0000
    52 C52     -2.6002  -2.4128  -7.6817   C.3       1 RES1   0.0000
    53 H53     -2.8672  -1.5657  -7.0532   H         1 RES1   0.0000
    54 H54     -3.0227  -3.3112  -7.2367   H         1 RES1   0.0000
    55 H55     -1.5165  -2.5097  -7.6764   H         1 RES1   0.0000
    56 C56     -2.0201   1.6663 -10.5957   C.ar      1 RES1   0.0000
    57 H57     -1.7417   2.6451 -10.9720   H         1 RES1   0.0000
    58 C58     -1.5247  -0.2685  -9.2767   C.ar      1 RES1   0.0000
    59 H59     -0.8492  -0.8011  -8.6154   H         1 RES1   0.0000
    60 C60     -3.5823  -0.1444 -10.4762   C.ar      1 RES1   0.0000
    61 H61     -4.5344  -0.5763 -10.7661   H         1 RES1   0.0000
    62 C62     -3.2256   1.1049 -10.9551   C.ar      1 RES1   0.0000
    63 H63     -3.8980   1.6427 -11.6152   H         1 RES1   0.0000
    64 C64     -1.1694   0.9804  -9.7570   C.ar      1 RES1   0.0000
    65 H65     -0.2192   1.4195  -9.4721   H         1 RES1   0.0000
@<TRIPOS>BOND
     1     1     5   ar
     2     1     6   ar
     3     1     2    1
     4     3     8   ar
     5     3     9   ar
     6     3     4    1
     7     5     9   ar
     8     5    11    1
     9     6     8   ar
    10     6     7    1
    11     8    12    1
    12     9    10    1
    13    11    20    2
    14    11    23    1
    15    13    14    1
    16    13    23   am
    17    13    24    1
    18    14    31    1
    19    14    34    1
    20    14    15    1
    21    16    24    1
    22    16    17    1
    23    16    18    1
    24    16    19    1
    25    20    21    1
    26    20    24    1
    27    21    40   ar
    28    21    45   ar
    29    22    23    2
    30    25    34    1
    31    25    37    1
    32    25    26    1
    33    25    27    1
    34    28    31    1
    35    28    37    1
    36    28    29    1
    37    28    30    1
    38    31    32    1
    39    31    33    1
    40    34    35    1
    41    34    36    1
    42    37    38    1
    43    37    39    1
    44    40    47   ar
    45    41    45   ar
    46    41    48   ar
    47    41    42    1
    48    43    47    1
    49    43    49    1
    50    43    44    1
    51    45    46    1
    52    47    48   ar
    53    49    51    1
    54    49    52    1
    55    49    50    1
    56    51    58   ar
    57    51    60   ar
    58    52    53    1
    59    52    54    1
    60    52    55    1
    61    56    62   ar
    62    56    64   ar
    63    56    57    1
    64    58    64   ar
    65    58    59    1
    66    60    62   ar
    67    60    61    1
    68    62    63    1
    69    64    65    1
@<TRIPOS>SUBSTRUCTURE
     1 RES1        1 GROUP             0 ****  ****    0  
@<TRIPOS>MOLECULE
LIGAND_00228
    65    69     1     0     0
SMALL
USER_CHARGES
****
Generated from the CSD

@<TRIPOS>ATOM
     1 C1      -1.5321  -4.6312 -17.1693   C.ar      1 RES1   0.0000
     2 H2      -2.0628  -5.4946 -17.5559   H         1 RES1   0.0000
     3 C3      -0.2154  -2.4050 -16.1988   C.ar      1 RES1   0.0000
     4 H4       0.2940  -1.5241 -15.8225   H         1 RES1   0.0000
     5 C5      -1.0482  -4.6533 -15.8647   C.ar      1 RES1   0.0000
     6 C6      -1.3555  -3.5269 -17.9840   C.ar      1 RES1   0.0000
     7 H7      -1.7280  -3.5228 -19.0030   H         1 RES1   0.0000
     8 C8      -0.7025  -2.4402 -17.4742   C.ar      1 RES1   0.0000
     9 C9      -0.3866  -3.5203 -15.3994   C.ar      1 RES1   0.0000
    10 H10      0.0090  -3.5068 -14.3902   H         1 RES1   0.0000
    11 C11     -1.2351  -5.8408 -14.9691   C.2       1 RES1   0.0000
    12 F12     -0.5300  -1.3485 -18.2681   F         1 RES1   0.0000
    13 N13     -1.1833  -7.9253 -14.1274   N.am      1 RES1   0.0000
    14 C14     -1.4062  -9.4084 -14.2119   C.3       1 RES1   0.0000
    15 H15     -1.0484  -9.7490 -15.1825   H         1 RES1   0.0000
    16 C16     -1.9110  -7.3975 -11.8840   C.3       1 RES1   0.0000
    17 H17     -2.4323  -6.6346 -11.3095   H         1 RES1   0.0000
    18 H18     -2.3392  -8.3647 -11.6293   H         1 RES1   0.0000
    19 H19     -0.8666  -7.3978 -11.5791   H         1 RES1   0.0000
    20 C20     -1.9509  -5.8488 -13.8230   C.2       1 RES1   0.0000
    21 C21     -2.6195  -4.7148 -13.1347   C.ar      1 RES1   0.0000
    22 O22     -0.1307  -7.6436 -16.1505   O.2       1 RES1   0.0000
    23 C23     -0.7453  -7.1712 -15.2031   C.2       1 RES1   0.0000
    24 N24     -2.0303  -7.1379 -13.3192   N.3       1 RES1   0.0000
    25 C25     -0.8011 -11.6383 -13.2178   C.3       1 RES1   0.0000
    26 H26     -0.2562 -12.1221 -12.4085   H         1 RES1   0.0000
    27 H27     -0.4241 -11.9970 -14.1745   H         1 RES1   0.0000
    28 C28     -3.0711 -11.2882 -14.1540   C.3       1 RES1   0.0000
    29 H29     -2.7610 -11.6487 -15.1337   H         1 RES1   0.0000
    30 H30     -4.1228 -11.5233 -13.9969   H         1 RES1   0.0000
    31 C31     -2.8823  -9.7799 -14.0943   C.3       1 RES1   0.0000
    32 H32     -3.4319  -9.3194 -14.9139   H         1 RES1   0.0000
    33 H33     -3.2681  -9.4100 -13.1454   H         1 RES1   0.0000
    34 C34     -0.6062 -10.1346 -13.1299   C.3       1 RES1   0.0000
    35 H35     -0.9380  -9.7902 -12.1515   H         1 RES1   0.0000
    36 H36      0.4510  -9.9056 -13.2560   H         1 RES1   0.0000
    37 N37     -2.2557 -11.9645 -13.1026   N.4       1 RES1   1.0000
    38 H38     -2.5862 -11.6660 -12.1905   H         1 RES1   0.0000
    39 H39     -2.3735 -12.9686 -13.1933   H         1 RES1   0.0000
    40 N40     -3.9583  -4.7648 -13.0522   N.ar      1 RES1   0.0000
    41 C41     -2.6448  -2.6452 -12.0064   C.ar      1 RES1   0.0000
    42 H42     -2.1107  -1.8006 -11.5836   H         1 RES1   0.0000
    43 N43     -5.9160  -3.7709 -12.3906   N.pl3     1 RES1   0.0000
    44 H44     -6.3964  -4.5307 -12.8726   H         1 RES1   0.0000
    45 C45     -1.9090  -3.6450 -12.6101   C.ar      1 RES1   0.0000
    46 H46     -0.8271  -3.5948 -12.6732   H         1 RES1   0.0000
    47 C47     -4.5755  -3.7326 -12.4550   C.ar      1 RES1   0.0000
    48 N48     -3.9808  -2.6591 -11.9144   N.ar      1 RES1   0.0000
    49 C49     -6.7340  -2.7567 -11.7259   C.3       1 RES1   0.0000
    50 H50     -6.5213  -1.7776 -12.1823   H         1 RES1   0.0000
    51 C51     -6.4497  -2.6682 -10.2393   C.ar      1 RES1   0.0000
    52 C52     -8.1965  -3.1031 -11.9796   C.3       1 RES1   0.0000
    53 H53     -8.8526  -2.4581 -11.3990   H         1 RES1   0.0000
    54 H54     -8.4466  -2.9820 -13.0315   H         1 RES1   0.0000
    55 H55     -8.4012  -4.1343 -11.6995   H         1 RES1   0.0000
    56 C56     -5.9373  -2.5172  -7.5053   C.ar      1 RES1   0.0000
    57 H57     -5.7371  -2.4587  -6.4406   H         1 RES1   0.0000
    58 C58     -7.0984  -3.5104  -9.3477   C.ar      1 RES1   0.0000
    59 H59     -7.8140  -4.2360  -9.7199   H         1 RES1   0.0000
    60 C60     -5.5410  -1.7467  -9.7375   C.ar      1 RES1   0.0000
    61 H61     -5.0229  -1.0764 -10.4153   H         1 RES1   0.0000
    62 C62     -5.2871  -1.6730  -8.3783   C.ar      1 RES1   0.0000
    63 H63     -4.5738  -0.9481  -8.0003   H         1 RES1   0.0000
    64 C64     -6.8427  -3.4358  -7.9890   C.ar      1 RES1   0.0000
    65 H65     -7.3565  -4.1023  -7.3044   H         1 RES1   0.0000
@<TRIPOS>BOND
     1     1     5   ar
     2     1     6   ar
     3     1     2    1
     4     3     8   ar
     5     3     9   ar
     6     3     4    1
     7     5     9   ar
     8     5    11    1
     9     6     8   ar
    10     6     7    1
    11     8    12    1
    12     9    10    1
    13    11    20    2
    14    11    23    1
    15    13    14    1
    16    13    23   am
    17    13    24    1
    18    14    31    1
    19    14    34    1
    20    14    15    1
    21    16    24    1
    22    16    17    1
    23    16    18    1
    24    16    19    1
    25    20    21    1
    26    20    24    1
    27    21    40   ar
    28    21    45   ar
    29    22    23    2
    30    25    34    1
    31    25    37    1
    32    25    26    1
    33    25    27    1
    34    28    31    1
    35    28    37    1
    36    28    29    1
    37    28    30    1
    38    31    32    1
    39    31    33    1
    40    34    35    1
    41    34    36    1
    42    37    38    1
    43    37    39    1
    44    40    47   ar
    45    41    45   ar
    46    41    48   ar
    47    41    42    1
    48    43    47    1
    49    43    49    1
    50    43    44    1
    51    45    46    1
    52    47    48   ar
    53    49    51    1
    54    49    52    1
    55    49    50    1
    56    51    58   ar
    57    51    60   ar
    58    52    53    1
    59    52    54    1
    60    52    55    1
    61    56    62   ar
    62    56    64   ar
    63    56    57    1
    64    58    64   ar
    65    58    59    1
    66    60    62   ar
    67    60    61    1
    68    62    63    1
    69    64    65    1
@<TRIPOS>SUBSTRUCTURE
     1 RES1        1 GROUP             0 ****  ****    0  
@<TRIPOS>MOLECULE
LIGAND_00229
    65    69     1     0     0
SMALL
USER_CHARGES
****
Generated from the CSD

@<TRIPOS>ATOM
     1 C1      -0.7108  -3.3903 -14.9801   C.ar      1 RES1   0.0000
     2 H2      -1.7712  -3.4229 -14.7544   H         1 RES1   0.0000
     3 C3       1.9943  -3.2700 -15.5277   C.ar      1 RES1   0.0000
     4 H4       3.0572  -3.2128 -15.7375   H         1 RES1   0.0000
     5 C5       0.0541  -4.5446 -14.8416   C.ar      1 RES1   0.0000
     6 C6      -0.1454  -2.1976 -15.3953   C.ar      1 RES1   0.0000
     7 H7      -0.7517  -1.3053 -15.5096   H         1 RES1   0.0000
     8 C8       1.1957  -2.1695 -15.6559   C.ar      1 RES1   0.0000
     9 C9       1.4143  -4.4590 -15.1252   C.ar      1 RES1   0.0000
    10 H10      2.0377  -5.3412 -15.0342   H         1 RES1   0.0000
    11 C11     -0.5435  -5.8429 -14.3892   C.2       1 RES1   0.0000
    12 F12      1.7596  -0.9985 -16.0594   F         1 RES1   0.0000
    13 N13     -1.2389  -7.9416 -14.1560   N.am      1 RES1   0.0000
    14 C14     -1.5064  -9.4121 -14.3069   C.3       1 RES1   0.0000
    15 H15     -1.0759  -9.7385 -15.2525   H         1 RES1   0.0000
    16 C16     -2.0822  -7.8397 -11.7777   C.3       1 RES1   0.0000
    17 H17     -2.6304  -7.1196 -11.1738   H         1 RES1   0.0000
    18 H18     -2.7476  -8.6713 -12.0000   H         1 RES1   0.0000
    19 H19     -1.2523  -8.2183 -11.1847   H         1 RES1   0.0000
    20 C20     -1.1594  -5.9688 -13.1688   C.2       1 RES1   0.0000
    21 C21     -1.4160  -4.9157 -12.1531   C.ar      1 RES1   0.0000
    22 O22     -0.1836  -7.5089 -16.1032   O.2       1 RES1   0.0000
    23 C23     -0.6021  -7.1205 -15.0205   C.2       1 RES1   0.0000
    24 N24     -1.5958  -7.2192 -13.0105   N.pl3     1 RES1   0.0000
    25 C25     -1.0729 -11.6911 -13.3348   C.3       1 RES1   0.0000
    26 H26     -0.6202 -12.2184 -12.4964   H         1 RES1   0.0000
    27 H27     -0.6252 -12.0367 -14.2654   H         1 RES1   0.0000
    28 C28     -3.2363 -11.2271 -14.4558   C.3       1 RES1   0.0000
    29 H29     -2.8531 -11.5712 -15.4153   H         1 RES1   0.0000
    30 H30     -4.3055 -11.4257 -14.3996   H         1 RES1   0.0000
    31 C31     -2.9995  -9.7295 -14.3317   C.3       1 RES1   0.0000
    32 H32     -3.4568  -9.2250 -15.1815   H         1 RES1   0.0000
    33 H33     -3.4549  -9.3722 -13.4093   H         1 RES1   0.0000
    34 C34     -0.8328 -10.1992 -13.1822   C.3       1 RES1   0.0000
    35 H35     -1.2381  -9.8702 -12.2265   H         1 RES1   0.0000
    36 H36      0.2390 -10.0076 -13.2073   H         1 RES1   0.0000
    37 N37     -2.5428 -11.9640 -13.3587   N.4       1 RES1   1.0000
    38 H38     -2.9425 -11.6791 -12.4702   H         1 RES1   0.0000
    39 H39     -2.6881 -12.9598 -13.4912   H         1 RES1   0.0000
    40 N40     -0.3411  -4.2871 -11.6519   N.ar      1 RES1   0.0000
    41 C41     -2.8045  -3.6095 -10.7664   C.ar      1 RES1   0.0000
    42 H42     -3.7964  -3.3386 -10.4200   H         1 RES1   0.0000
    43 N43      0.5165  -2.7366 -10.1964   N.pl3     1 RES1   0.0000
    44 H44      0.3604  -1.9655  -9.5472   H         1 RES1   0.0000
    45 C45     -2.6965  -4.5965 -11.7253   C.ar      1 RES1   0.0000
    46 H46     -3.5713  -5.1000 -12.1232   H         1 RES1   0.0000
    47 C47     -0.5591  -3.3512 -10.7141   C.ar      1 RES1   0.0000
    48 N48     -1.7533  -2.9686 -10.2391   N.ar      1 RES1   0.0000
    49 C49      1.8973  -3.0618 -10.5533   C.3       1 RES1   0.0000
    50 H50      2.0212  -2.9292 -11.6393   H         1 RES1   0.0000
    51 C51      2.2659  -4.4883 -10.1960   C.ar      1 RES1   0.0000
    52 C52      2.8059  -2.0700  -9.8365   C.3       1 RES1   0.0000
    53 H53      3.8520  -2.2829 -10.0467   H         1 RES1   0.0000
    54 H54      2.5966  -1.0514 -10.1564   H         1 RES1   0.0000
    55 H55      2.6594  -2.1236  -8.7597   H         1 RES1   0.0000
    56 C56      2.9468  -7.1048  -9.5250   C.ar      1 RES1   0.0000
    57 H57      3.2113  -8.1241  -9.2636   H         1 RES1   0.0000
    58 C58      2.7206  -4.7994  -8.9227   C.ar      1 RES1   0.0000
    59 H59      2.8125  -4.0141  -8.1797   H         1 RES1   0.0000
    60 C60      2.1603  -5.5106 -11.1291   C.ar      1 RES1   0.0000
    61 H61      1.8087  -5.2911 -12.1318   H         1 RES1   0.0000
    62 C62      2.4988  -6.8108 -10.7940   C.ar      1 RES1   0.0000
    63 H63      2.4105  -7.5997 -11.5335   H         1 RES1   0.0000
    64 C64      3.0579  -6.1002  -8.5892   C.ar      1 RES1   0.0000
    65 H65      3.4103  -6.3282  -7.5888   H         1 RES1   0.0000
@<TRIPOS>BOND
     1     1     5   ar
     2     1     6   ar
     3     1     2    1
     4     3     8   ar
     5     3     9   ar
     6     3     4    1
     7     5     9   ar
     8     5    11    1
     9     6     8   ar
    10     6     7    1
    11     8    12    1
    12     9    10    1
    13    11    20    2
    14    11    23    1
    15    13    14    1
    16    13    23   am
    17    13    24    1
    18    14    31    1
    19    14    34    1
    20    14    15    1
    21    16    24    1
    22    16    17    1
    23    16    18    1
    24    16    19    1
    25    20    21    1
    26    20    24    1
    27    21    40   ar
    28    21    45   ar
    29    22    23    2
    30    25    34    1
    31    25    37    1
    32    25    26    1
    33    25    27    1
    34    28    31    1
    35    28    37    1
    36    28    29    1
    37    28    30    1
    38    31    32    1
    39    31    33    1
    40    34    35    1
    41    34    36    1
    42    37    38    1
    43    37    39    1
    44    40    47   ar
    45    41    45   ar
    46    41    48   ar
    47    41    42    1
    48    43    47    1
    49    43    49    1
    50    43    44    1
    51    45    46    1
    52    47    48   ar
    53    49    51    1
    54    49    52    1
    55    49    50    1
    56    51    58   ar
    57    51    60   ar
    58    52    53    1
    59    52    54    1
    60    52    55    1
    61    56    62   ar
    62    56    64   ar
    63    56    57    1
    64    58    64   ar
    65    58    59    1
    66    60    62   ar
    67    60    61    1
    68    62    63    1
    69    64    65    1
@<TRIPOS>SUBSTRUCTURE
     1 RES1        1 GROUP             0 ****  ****    0  
@<TRIPOS>MOLECULE
LIGAND_00230
    65    69     1     0     0
SMALL
USER_CHARGES
****
Generated from the CSD

@<TRIPOS>ATOM
     1 C1      -0.7115  -3.3903 -14.9803   C.ar      1 RES1   0.0000
     2 H2      -1.7718  -3.4231 -14.7544   H         1 RES1   0.0000
     3 C3       1.9935  -3.2696 -15.5283   C.ar      1 RES1   0.0000
     4 H4       3.0564  -3.2123 -15.7382   H         1 RES1   0.0000
     5 C5       0.0536  -4.5445 -14.8418   C.ar      1 RES1   0.0000
     6 C6      -0.1463  -2.1976 -15.3956   C.ar      1 RES1   0.0000
     7 H7      -0.7528  -1.3053 -15.5099   H         1 RES1   0.0000
     8 C8       1.1947  -2.1692 -15.6565   C.ar      1 RES1   0.0000
     9 C9       1.4137  -4.4587 -15.1257   C.ar      1 RES1   0.0000
    10 H10      2.0373  -5.3408 -15.0347   H         1 RES1   0.0000
    11 C11     -0.5437  -5.8428 -14.3893   C.2       1 RES1   0.0000
    12 F12      1.7584  -0.9982 -16.0600   F         1 RES1   0.0000
    13 N13     -1.2387  -7.9417 -14.1559   N.am      1 RES1   0.0000
    14 C14     -1.5061  -9.4122 -14.3068   C.3       1 RES1   0.0000
    15 H15     -1.0755  -9.7386 -15.2523   H         1 RES1   0.0000
    16 C16     -2.0817  -7.8398 -11.7775   C.3       1 RES1   0.0000
    17 H17     -2.6296  -7.1196 -11.1734   H         1 RES1   0.0000
    18 H18     -2.7473  -8.6713 -11.9997   H         1 RES1   0.0000
    19 H19     -1.2517  -8.2186 -11.1848   H         1 RES1   0.0000
    20 C20     -1.1594  -5.9688 -13.1688   C.2       1 RES1   0.0000
    21 C21     -1.4160  -4.9157 -12.1531   C.ar      1 RES1   0.0000
    22 O22     -0.1838  -7.5089 -16.1033   O.2       1 RES1   0.0000
    23 C23     -0.6022  -7.1204 -15.0205   C.2       1 RES1   0.0000
    24 N24     -1.5956  -7.2192 -13.0104   N.pl3     1 RES1   0.0000
    25 C25     -1.0723 -11.6910 -13.3344   C.3       1 RES1   0.0000
    26 H26     -0.6196 -12.2182 -12.4959   H         1 RES1   0.0000
    27 H27     -0.6245 -12.0366 -14.2649   H         1 RES1   0.0000
    28 C28     -3.2357 -11.2274 -14.4556   C.3       1 RES1   0.0000
    29 H29     -2.8524 -11.5716 -15.4150   H         1 RES1   0.0000
    30 H30     -4.3049 -11.4262 -14.3994   H         1 RES1   0.0000
    31 C31     -2.9991  -9.7298 -14.3316   C.3       1 RES1   0.0000
    32 H32     -3.4565  -9.2254 -15.1815   H         1 RES1   0.0000
    33 H33     -3.4546  -9.3725 -13.4092   H         1 RES1   0.0000
    34 C34     -0.8324 -10.1991 -13.1819   C.3       1 RES1   0.0000
    35 H35     -1.2378  -9.8701 -12.2262   H         1 RES1   0.0000
    36 H36      0.2393 -10.0074 -13.2069   H         1 RES1   0.0000
    37 N37     -2.5422 -11.9642 -13.3583   N.4       1 RES1   1.0000
    38 H38     -2.9420 -11.6792 -12.4699   H         1 RES1   0.0000
    39 H39     -2.6873 -12.9600 -13.4908   H         1 RES1   0.0000
    40 N40     -0.3411  -4.2871 -11.6519   N.ar      1 RES1   0.0000
    41 C41     -2.8045  -3.6095 -10.7664   C.ar      1 RES1   0.0000
    42 H42     -3.7964  -3.3386 -10.4200   H         1 RES1   0.0000
    43 N43      0.5165  -2.7366 -10.1964   N.pl3     1 RES1   0.0000
    44 H44      1.4388  -3.0717 -10.4745   H         1 RES1   0.0000
    45 C45     -2.6965  -4.5965 -11.7253   C.ar      1 RES1   0.0000
    46 H46     -3.5713  -5.1000 -12.1232   H         1 RES1   0.0000
    47 C47     -0.5591  -3.3512 -10.7141   C.ar      1 RES1   0.0000
    48 N48     -1.7533  -2.9686 -10.2391   N.ar      1 RES1   0.0000
    49 C49      0.4489  -1.6581  -9.2106   C.3       1 RES1   0.0000
    50 H50     -0.0957  -2.0229  -8.3259   H         1 RES1   0.0000
    51 C51     -0.2640  -0.4311  -9.7442   C.ar      1 RES1   0.0000
    52 C52      1.8763  -1.3200  -8.7966   C.3       1 RES1   0.0000
    53 H53      1.8868  -0.5027  -8.0785   H         1 RES1   0.0000
    54 H54      2.3610  -2.1796  -8.3386   H         1 RES1   0.0000
    55 H55      2.4657  -1.0192  -9.6602   H         1 RES1   0.0000
    56 C56     -1.5607   1.8283 -10.7311   C.ar      1 RES1   0.0000
    57 H57     -2.0660   2.7079 -11.1160   H         1 RES1   0.0000
    58 C58      0.4304   0.5259 -10.4701   C.ar      1 RES1   0.0000
    59 H59      1.4912   0.3927 -10.6551   H         1 RES1   0.0000
    60 C60     -1.6197  -0.2357  -9.5188   C.ar      1 RES1   0.0000
    61 H61     -2.1833  -0.9696  -8.9523   H         1 RES1   0.0000
    62 C62     -2.2630   0.8877 -10.0102   C.ar      1 RES1   0.0000
    63 H63     -3.3232   1.0269  -9.8268   H         1 RES1   0.0000
    64 C64     -0.2146   1.6481 -10.9614   C.ar      1 RES1   0.0000
    65 H65      0.3415   2.3869 -11.5288   H         1 RES1   0.0000
@<TRIPOS>BOND
     1     1     5   ar
     2     1     6   ar
     3     1     2    1
     4     3     8   ar
     5     3     9   ar
     6     3     4    1
     7     5     9   ar
     8     5    11    1
     9     6     8   ar
    10     6     7    1
    11     8    12    1
    12     9    10    1
    13    11    20    2
    14    11    23    1
    15    13    14    1
    16    13    23   am
    17    13    24    1
    18    14    31    1
    19    14    34    1
    20    14    15    1
    21    16    24    1
    22    16    17    1
    23    16    18    1
    24    16    19    1
    25    20    21    1
    26    20    24    1
    27    21    40   ar
    28    21    45   ar
    29    22    23    2
    30    25    34    1
    31    25    37    1
    32    25    26    1
    33    25    27    1
    34    28    31    1
    35    28    37    1
    36    28    29    1
    37    28    30    1
    38    31    32    1
    39    31    33    1
    40    34    35    1
    41    34    36    1
    42    37    38    1
    43    37    39    1
    44    40    47   ar
    45    41    45   ar
    46    41    48   ar
    47    41    42    1
    48    43    47    1
    49    43    49    1
    50    43    44    1
    51    45    46    1
    52    47    48   ar
    53    49    51    1
    54    49    52    1
    55    49    50    1
    56    51    58   ar
    57    51    60   ar
    58    52    53    1
    59    52    54    1
    60    52    55    1
    61    56    62   ar
    62    56    64   ar
    63    56    57    1
    64    58    64   ar
    65    58    59    1
    66    60    62   ar
    67    60    61    1
    68    62    63    1
    69    64    65    1
@<TRIPOS>SUBSTRUCTURE
     1 RES1        1 GROUP             0 ****  ****    0  
@<TRIPOS>MOLECULE
LIGAND_00231
    65    69     1     0     0
SMALL
USER_CHARGES
****
Generated from the CSD

@<TRIPOS>ATOM
     1 C1       1.9033  -5.0890 -12.2460   C.ar      1 RES1   0.0000
     2 H2       2.5352  -5.6445 -12.9305   H         1 RES1   0.0000
     3 C3       0.3153  -3.6349 -10.5151   C.ar      1 RES1   0.0000
     4 H4      -0.3020  -3.0547  -9.8372   H         1 RES1   0.0000
     5 C5       0.5234  -5.2630 -12.2944   C.ar      1 RES1   0.0000
     6 C6       2.4876  -4.2163 -11.3451   C.ar      1 RES1   0.0000
     7 H7       3.5650  -4.0946 -11.3083   H         1 RES1   0.0000
     8 C8       1.6753  -3.5095 -10.5039   C.ar      1 RES1   0.0000
     9 C9      -0.2551  -4.5205 -11.4109   C.ar      1 RES1   0.0000
    10 H10     -1.3329  -4.6372 -11.4175   H         1 RES1   0.0000
    11 C11     -0.1243  -6.2018 -13.2672   C.2       1 RES1   0.0000
    12 F12      2.2427  -2.6453  -9.6190   F         1 RES1   0.0000
    13 N13     -1.2610  -7.9268 -14.1552   N.am      1 RES1   0.0000
    14 C14     -1.5584  -9.3900 -14.3206   C.3       1 RES1   0.0000
    15 H15     -1.2901  -9.6765 -15.3364   H         1 RES1   0.0000
    16 C16     -1.4417  -7.0811 -16.4119   C.3       1 RES1   0.0000
    17 H17     -0.8103  -7.0503 -17.2974   H         1 RES1   0.0000
    18 H18     -2.1292  -7.9181 -16.5152   H         1 RES1   0.0000
    19 H19     -2.0261  -6.1640 -16.3793   H         1 RES1   0.0000
    20 C20     -0.0279  -6.1202 -14.6126   C.2       1 RES1   0.0000
    21 C21      0.6269  -5.0726 -15.4374   C.ar      1 RES1   0.0000
    22 O22     -1.1622  -7.8775 -11.8600   O.2       1 RES1   0.0000
    23 C23     -0.8958  -7.3693 -12.9412   C.2       1 RES1   0.0000
    24 N24     -0.6311  -7.2207 -15.2016   N.3       1 RES1   0.0000
    25 C25     -0.9856 -11.7070 -13.5267   C.3       1 RES1   0.0000
    26 H26     -0.4052 -12.2682 -12.7960   H         1 RES1   0.0000
    27 H27     -0.6980 -12.0133 -14.5314   H         1 RES1   0.0000
    28 C28     -3.3002 -11.1986 -14.2590   C.3       1 RES1   0.0000
    29 H29     -3.0810 -11.5023 -15.2815   H         1 RES1   0.0000
    30 H30     -4.3471 -11.4002 -14.0369   H         1 RES1   0.0000
    31 C31     -3.0373  -9.7073 -14.1139   C.3       1 RES1   0.0000
    32 H32     -3.6243  -9.1683 -14.8561   H         1 RES1   0.0000
    33 H33     -3.3338  -9.3888 -13.1156   H         1 RES1   0.0000
    34 C34     -0.7148 -10.2225 -13.3544   C.3       1 RES1   0.0000
    35 H35     -0.9565  -9.9337 -12.3325   H         1 RES1   0.0000
    36 H36      0.3396 -10.0292 -13.5464   H         1 RES1   0.0000
    37 N37     -2.4413 -11.9798 -13.3211   N.4       1 RES1   1.0000
    38 H38     -2.6887 -11.7323 -12.3684   H         1 RES1   0.0000
    39 H39     -2.6122 -12.9694 -13.4689   H         1 RES1   0.0000
    40 N40      0.6201  -3.8247 -14.9431   N.ar      1 RES1   0.0000
    41 C41      1.7732  -4.2925 -17.3438   C.ar      1 RES1   0.0000
    42 H42      2.2393  -4.4886 -18.3038   H         1 RES1   0.0000
    43 N43      1.1615  -1.6123 -15.2087   N.pl3     1 RES1   0.0000
    44 H44      1.6524  -0.8877 -15.7325   H         1 RES1   0.0000
    45 C45      1.2088  -5.3536 -16.6650   C.ar      1 RES1   0.0000
    46 H46      1.2178  -6.3586 -17.0736   H         1 RES1   0.0000
    47 C47      1.1863  -2.8647 -15.6920   C.ar      1 RES1   0.0000
    48 N48      1.7765  -3.0345 -16.8841   N.ar      1 RES1   0.0000
    49 C49      0.5281  -1.2335 -13.9458   C.3       1 RES1   0.0000
    50 H50      1.0190  -1.7818 -13.1269   H         1 RES1   0.0000
    51 C51     -0.9531  -1.5558 -13.9227   C.ar      1 RES1   0.0000
    52 C52      0.7628   0.2584 -13.7401   C.3       1 RES1   0.0000
    53 H53      0.3382   0.5894 -12.7946   H         1 RES1   0.0000
    54 H54      1.8267   0.4859 -13.7319   H         1 RES1   0.0000
    55 H55      0.2997   0.8339 -14.5389   H         1 RES1   0.0000
    56 C56     -3.6755  -2.1461 -13.8955   C.ar      1 RES1   0.0000
    57 H57     -4.7356  -2.3768 -13.8849   H         1 RES1   0.0000
    58 C58     -1.6921  -1.5531 -15.0969   C.ar      1 RES1   0.0000
    59 H59     -1.2038  -1.3178 -16.0368   H         1 RES1   0.0000
    60 C60     -1.6022  -1.8570 -12.7332   C.ar      1 RES1   0.0000
    61 H61     -1.0455  -1.8635 -11.8019   H         1 RES1   0.0000
    62 C62     -2.9553  -2.1506 -12.7212   C.ar      1 RES1   0.0000
    63 H63     -3.4492  -2.3849 -11.7841   H         1 RES1   0.0000
    64 C64     -3.0448  -1.8477 -15.0832   C.ar      1 RES1   0.0000
    65 H65     -3.6090  -1.8433 -16.0099   H         1 RES1   0.0000
@<TRIPOS>BOND
     1     1     5   ar
     2     1     6   ar
     3     1     2    1
     4     3     8   ar
     5     3     9   ar
     6     3     4    1
     7     5     9   ar
     8     5    11    1
     9     6     8   ar
    10     6     7    1
    11     8    12    1
    12     9    10    1
    13    11    20    2
    14    11    23    1
    15    13    14    1
    16    13    23   am
    17    13    24    1
    18    14    31    1
    19    14    34    1
    20    14    15    1
    21    16    24    1
    22    16    17    1
    23    16    18    1
    24    16    19    1
    25    20    21    1
    26    20    24    1
    27    21    40   ar
    28    21    45   ar
    29    22    23    2
    30    25    34    1
    31    25    37    1
    32    25    26    1
    33    25    27    1
    34    28    31    1
    35    28    37    1
    36    28    29    1
    37    28    30    1
    38    31    32    1
    39    31    33    1
    40    34    35    1
    41    34    36    1
    42    37    38    1
    43    37    39    1
    44    40    47   ar
    45    41    45   ar
    46    41    48   ar
    47    41    42    1
    48    43    47    1
    49    43    49    1
    50    43    44    1
    51    45    46    1
    52    47    48   ar
    53    49    51    1
    54    49    52    1
    55    49    50    1
    56    51    58   ar
    57    51    60   ar
    58    52    53    1
    59    52    54    1
    60    52    55    1
    61    56    62   ar
    62    56    64   ar
    63    56    57    1
    64    58    64   ar
    65    58    59    1
    66    60    62   ar
    67    60    61    1
    68    62    63    1
    69    64    65    1
@<TRIPOS>SUBSTRUCTURE
     1 RES1        1 GROUP             0 ****  ****    0  
@<TRIPOS>MOLECULE
LIGAND_00232
    65    69     1     0     0
SMALL
USER_CHARGES
****
Generated from the CSD

@<TRIPOS>ATOM
     1 C1      -1.4007  -3.4860 -12.8155   C.ar      1 RES1   0.0000
     2 H2      -0.7313  -3.8892 -12.0633   H         1 RES1   0.0000
     3 C3      -3.0769  -2.4228 -14.7369   C.ar      1 RES1   0.0000
     4 H4      -3.7290  -1.9958 -15.4916   H         1 RES1   0.0000
     5 C5      -1.8265  -4.3009 -13.8602   C.ar      1 RES1   0.0000
     6 C6      -1.8093  -2.1676 -12.7186   C.ar      1 RES1   0.0000
     7 H7      -1.4797  -1.5428 -11.8952   H         1 RES1   0.0000
     8 C8      -2.6363  -1.6701 -13.6859   C.ar      1 RES1   0.0000
     9 C9      -2.6721  -3.7428 -14.8147   C.ar      1 RES1   0.0000
    10 H10     -3.0280  -4.3519 -15.6378   H         1 RES1   0.0000
    11 C11     -1.3894  -5.7298 -13.9806   C.2       1 RES1   0.0000
    12 F12     -3.0378  -0.3727 -13.5999   F         1 RES1   0.0000
    13 N13     -1.2406  -7.9410 -14.1570   N.am      1 RES1   0.0000
    14 C14     -1.5106  -9.4109 -14.3092   C.3       1 RES1   0.0000
    15 H15     -1.0898  -9.7350 -15.2599   H         1 RES1   0.0000
    16 C16      1.2391  -8.1596 -14.5825   C.3       1 RES1   0.0000
    17 H17      1.8628  -8.3639 -13.7148   H         1 RES1   0.0000
    18 H18      0.9608  -9.1111 -15.0309   H         1 RES1   0.0000
    19 H19      1.8338  -7.6049 -15.3052   H         1 RES1   0.0000
    20 C20     -0.0657  -6.0730 -14.1024   C.2       1 RES1   0.0000
    21 C21      1.1240  -5.1843 -14.0637   C.ar      1 RES1   0.0000
    22 O22     -3.3445  -7.1509 -13.9523   O.2       1 RES1   0.0000
    23 C23     -2.1400  -6.9421 -14.0140   C.2       1 RES1   0.0000
    24 N24      0.0498  -7.3983 -14.1986   N.pl3     1 RES1   0.0000
    25 C25     -1.0687 -11.6927 -13.3474   C.3       1 RES1   0.0000
    26 H26     -0.6079 -12.2225 -12.5150   H         1 RES1   0.0000
    27 H27     -0.6306 -12.0361 -14.2834   H         1 RES1   0.0000
    28 C28     -3.2429 -11.2245 -14.4455   C.3       1 RES1   0.0000
    29 H29     -2.8696 -11.5663 -15.4097   H         1 RES1   0.0000
    30 H30     -4.3117 -11.4227 -14.3790   H         1 RES1   0.0000
    31 C31     -3.0040  -9.7274 -14.3198   C.3       1 RES1   0.0000
    32 H32     -3.4695  -9.2204 -15.1637   H         1 RES1   0.0000
    33 H33     -3.4499  -9.3722 -13.3919   H         1 RES1   0.0000
    34 C34     -0.8261 -10.2014 -13.1934   C.3       1 RES1   0.0000
    35 H35     -1.2216  -9.8747 -12.2327   H         1 RES1   0.0000
    36 H36      0.2454 -10.0104 -13.2287   H         1 RES1   0.0000
    37 N37     -2.5390 -11.9647 -13.3573   N.4       1 RES1   1.0000
    38 H38     -2.9295 -11.6820 -12.4641   H         1 RES1   0.0000
    39 H39     -2.6862 -12.9601 -13.4910   H         1 RES1   0.0000
    40 N40      2.0256  -5.4261 -13.0991   N.ar      1 RES1   0.0000
    41 C41      2.4404  -3.3801 -14.8176   C.ar      1 RES1   0.0000
    42 H42      2.6033  -2.5644 -15.5144   H         1 RES1   0.0000
    43 N43      3.9844  -4.8403 -12.0608   N.pl3     1 RES1   0.0000
    44 H44      4.8288  -4.2686 -12.0416   H         1 RES1   0.0000
    45 C45      1.3007  -4.1448 -14.9650   C.ar      1 RES1   0.0000
    46 H46      0.5769  -3.9404 -15.7469   H         1 RES1   0.0000
    47 C47      3.0924  -4.6130 -13.0382   C.ar      1 RES1   0.0000
    48 N48      3.3555  -3.5881 -13.8620   N.ar      1 RES1   0.0000
    49 C49      3.8512  -5.8981 -11.0594   C.3       1 RES1   0.0000
    50 H50      3.8319  -6.8709 -11.5747   H         1 RES1   0.0000
    51 C51      2.5836  -5.7611 -10.2391   C.ar      1 RES1   0.0000
    52 C52      5.0849  -5.8466 -10.1657   C.3       1 RES1   0.0000
    53 H53      5.0538  -6.6369  -9.4185   H         1 RES1   0.0000
    54 H54      5.9933  -5.9700 -10.7516   H         1 RES1   0.0000
    55 H55      5.1437  -4.8923  -9.6466   H         1 RES1   0.0000
    56 C56      0.2549  -5.4939  -8.7337   C.ar      1 RES1   0.0000
    57 H57     -0.6525  -5.3901  -8.1480   H         1 RES1   0.0000
    58 C58      2.0335  -4.5104  -9.9980   C.ar      1 RES1   0.0000
    59 H59      2.5164  -3.6260 -10.4002   H         1 RES1   0.0000
    60 C60      1.9482  -6.8764  -9.7107   C.ar      1 RES1   0.0000
    61 H61      2.3608  -7.8647  -9.8845   H         1 RES1   0.0000
    62 C62      0.7906  -6.7421  -8.9630   C.ar      1 RES1   0.0000
    63 H63      0.3044  -7.6229  -8.5569   H         1 RES1   0.0000
    64 C64      0.8755  -4.3781  -9.2507   C.ar      1 RES1   0.0000
    65 H65      0.4563  -3.3935  -9.0722   H         1 RES1   0.0000
@<TRIPOS>BOND
     1     1     5   ar
     2     1     6   ar
     3     1     2    1
     4     3     8   ar
     5     3     9   ar
     6     3     4    1
     7     5     9   ar
     8     5    11    1
     9     6     8   ar
    10     6     7    1
    11     8    12    1
    12     9    10    1
    13    11    20    2
    14    11    23    1
    15    13    14    1
    16    13    23   am
    17    13    24    1
    18    14    31    1
    19    14    34    1
    20    14    15    1
    21    16    24    1
    22    16    17    1
    23    16    18    1
    24    16    19    1
    25    20    21    1
    26    20    24    1
    27    21    40   ar
    28    21    45   ar
    29    22    23    2
    30    25    34    1
    31    25    37    1
    32    25    26    1
    33    25    27    1
    34    28    31    1
    35    28    37    1
    36    28    29    1
    37    28    30    1
    38    31    32    1
    39    31    33    1
    40    34    35    1
    41    34    36    1
    42    37    38    1
    43    37    39    1
    44    40    47   ar
    45    41    45   ar
    46    41    48   ar
    47    41    42    1
    48    43    47    1
    49    43    49    1
    50    43    44    1
    51    45    46    1
    52    47    48   ar
    53    49    51    1
    54    49    52    1
    55    49    50    1
    56    51    58   ar
    57    51    60   ar
    58    52    53    1
    59    52    54    1
    60    52    55    1
    61    56    62   ar
    62    56    64   ar
    63    56    57    1
    64    58    64   ar
    65    58    59    1
    66    60    62   ar
    67    60    61    1
    68    62    63    1
    69    64    65    1
@<TRIPOS>SUBSTRUCTURE
     1 RES1        1 GROUP             0 ****  ****    0  
@<TRIPOS>MOLECULE
LIGAND_00233
    65    69     1     0     0
SMALL
USER_CHARGES
****
Generated from the CSD

@<TRIPOS>ATOM
     1 C1      -2.5267  -3.8357 -12.7514   C.ar      1 RES1   0.0000
     2 H2      -2.7654  -4.5211 -11.9454   H         1 RES1   0.0000
     3 C3      -1.9012  -2.0602 -14.7733   C.ar      1 RES1   0.0000
     4 H4      -1.6527  -1.3551 -15.5597   H         1 RES1   0.0000
     5 C5      -1.8265  -4.3009 -13.8605   C.ar      1 RES1   0.0000
     6 C6      -2.9210  -2.5132 -12.6519   C.ar      1 RES1   0.0000
     7 H7      -3.4750  -2.1620 -11.7878   H         1 RES1   0.0000
     8 C8      -2.5944  -1.6589 -13.6671   C.ar      1 RES1   0.0000
     9 C9      -1.5248  -3.3875 -14.8667   C.ar      1 RES1   0.0000
    10 H10     -0.9865  -3.7183 -15.7476   H         1 RES1   0.0000
    11 C11     -1.3894  -5.7298 -13.9807   C.2       1 RES1   0.0000
    12 F12     -2.9742  -0.3555 -13.5734   F         1 RES1   0.0000
    13 N13     -1.2406  -7.9410 -14.1569   N.am      1 RES1   0.0000
    14 C14     -1.5106  -9.4109 -14.3090   C.3       1 RES1   0.0000
    15 H15     -1.0897  -9.7351 -15.2596   H         1 RES1   0.0000
    16 C16      1.2391  -8.1596 -14.5822   C.3       1 RES1   0.0000
    17 H17      1.8721  -8.3477 -13.7175   H         1 RES1   0.0000
    18 H18      0.9612  -9.1192 -15.0135   H         1 RES1   0.0000
    19 H19      1.8241  -7.6131 -15.3189   H         1 RES1   0.0000
    20 C20     -0.0657  -6.0730 -14.1024   C.2       1 RES1   0.0000
    21 C21      1.1240  -5.1843 -14.0637   C.ar      1 RES1   0.0000
    22 O22     -3.3445  -7.1509 -13.9524   O.2       1 RES1   0.0000
    23 C23     -2.1400  -6.9421 -14.0141   C.2       1 RES1   0.0000
    24 N24      0.0498  -7.3983 -14.1985   N.pl3     1 RES1   0.0000
    25 C25     -1.0688 -11.6926 -13.3470   C.3       1 RES1   0.0000
    26 H26     -0.6081 -12.2224 -12.5144   H         1 RES1   0.0000
    27 H27     -0.6306 -12.0361 -14.2828   H         1 RES1   0.0000
    28 C28     -3.2429 -11.2245 -14.4452   C.3       1 RES1   0.0000
    29 H29     -2.8695 -11.5665 -15.4094   H         1 RES1   0.0000
    30 H30     -4.3117 -11.4227 -14.3789   H         1 RES1   0.0000
    31 C31     -3.0040  -9.7274 -14.3197   C.3       1 RES1   0.0000
    32 H32     -3.4694  -9.2205 -15.1637   H         1 RES1   0.0000
    33 H33     -3.4500  -9.3722 -13.3919   H         1 RES1   0.0000
    34 C34     -0.8263 -10.2013 -13.1930   C.3       1 RES1   0.0000
    35 H35     -1.2218  -9.8745 -12.2324   H         1 RES1   0.0000
    36 H36      0.2453 -10.0103 -13.2282   H         1 RES1   0.0000
    37 N37     -2.5391 -11.9647 -13.3569   N.4       1 RES1   1.0000
    38 H38     -2.9297 -11.6818 -12.4638   H         1 RES1   0.0000
    39 H39     -2.6863 -12.9600 -13.4906   H         1 RES1   0.0000
    40 N40      1.9023  -5.1714 -15.1572   N.ar      1 RES1   0.0000
    41 C41      2.5741  -3.6368 -13.0346   C.ar      1 RES1   0.0000
    42 H42      2.8344  -3.0190 -12.1815   H         1 RES1   0.0000
    43 N43      3.7858  -4.3937 -16.2088   N.pl3     1 RES1   0.0000
    44 H44      4.5827  -3.7572 -16.2209   H         1 RES1   0.0000
    45 C45      1.4342  -4.4110 -12.9546   C.ar      1 RES1   0.0000
    46 H46      0.8123  -4.4159 -12.0656   H         1 RES1   0.0000
    47 C47      2.9948  -4.3915 -15.1239   C.ar      1 RES1   0.0000
    48 N48      3.3772  -3.6066 -14.1060   N.ar      1 RES1   0.0000
    49 C49      3.5405  -5.2058 -17.4003   C.3       1 RES1   0.0000
    50 H50      2.5681  -4.9179 -17.8291   H         1 RES1   0.0000
    51 C51      3.5117  -6.6900 -17.0923   C.ar      1 RES1   0.0000
    52 C52      4.6325  -4.8823 -18.4132   C.3       1 RES1   0.0000
    53 H53      4.4798  -5.4375 -19.3363   H         1 RES1   0.0000
    54 H54      4.6367  -3.8210 -18.6530   H         1 RES1   0.0000
    55 H55      5.6121  -5.1442 -18.0189   H         1 RES1   0.0000
    56 C56      3.4687  -9.4148 -16.5144   C.ar      1 RES1   0.0000
    57 H57      3.4513 -10.4760 -16.2891   H         1 RES1   0.0000
    58 C58      4.2691  -7.2072 -16.0512   C.ar      1 RES1   0.0000
    59 H59      4.8858  -6.5423 -15.4554   H         1 RES1   0.0000
    60 C60      2.7336  -7.5621 -17.8412   C.ar      1 RES1   0.0000
    61 H61      2.1343  -7.1811 -18.6614   H         1 RES1   0.0000
    62 C62      2.7130  -8.9162 -17.5526   C.ar      1 RES1   0.0000
    63 H63      2.0995  -9.5859 -18.1461   H         1 RES1   0.0000
    64 C64      4.2467  -8.5613 -15.7636   C.ar      1 RES1   0.0000
    65 H65      4.8430  -8.9506 -14.9451   H         1 RES1   0.0000
@<TRIPOS>BOND
     1     1     5   ar
     2     1     6   ar
     3     1     2    1
     4     3     8   ar
     5     3     9   ar
     6     3     4    1
     7     5     9   ar
     8     5    11    1
     9     6     8   ar
    10     6     7    1
    11     8    12    1
    12     9    10    1
    13    11    20    2
    14    11    23    1
    15    13    14    1
    16    13    23   am
    17    13    24    1
    18    14    31    1
    19    14    34    1
    20    14    15    1
    21    16    24    1
    22    16    17    1
    23    16    18    1
    24    16    19    1
    25    20    21    1
    26    20    24    1
    27    21    40   ar
    28    21    45   ar
    29    22    23    2
    30    25    34    1
    31    25    37    1
    32    25    26    1
    33    25    27    1
    34    28    31    1
    35    28    37    1
    36    28    29    1
    37    28    30    1
    38    31    32    1
    39    31    33    1
    40    34    35    1
    41    34    36    1
    42    37    38    1
    43    37    39    1
    44    40    47   ar
    45    41    45   ar
    46    41    48   ar
    47    41    42    1
    48    43    47    1
    49    43    49    1
    50    43    44    1
    51    45    46    1
    52    47    48   ar
    53    49    51    1
    54    49    52    1
    55    49    50    1
    56    51    58   ar
    57    51    60   ar
    58    52    53    1
    59    52    54    1
    60    52    55    1
    61    56    62   ar
    62    56    64   ar
    63    56    57    1
    64    58    64   ar
    65    58    59    1
    66    60    62   ar
    67    60    61    1
    68    62    63    1
    69    64    65    1
@<TRIPOS>SUBSTRUCTURE
     1 RES1        1 GROUP             0 ****  ****    0  
@<TRIPOS>MOLECULE
LIGAND_00234
    65    69     1     0     0
SMALL
USER_CHARGES
****
Generated from the CSD

@<TRIPOS>ATOM
     1 C1      -2.5267  -3.8357 -12.7514   C.ar      1 RES1   0.0000
     2 H2      -2.7654  -4.5211 -11.9454   H         1 RES1   0.0000
     3 C3      -1.9012  -2.0602 -14.7733   C.ar      1 RES1   0.0000
     4 H4      -1.6527  -1.3551 -15.5597   H         1 RES1   0.0000
     5 C5      -1.8265  -4.3009 -13.8605   C.ar      1 RES1   0.0000
     6 C6      -2.9210  -2.5132 -12.6519   C.ar      1 RES1   0.0000
     7 H7      -3.4750  -2.1620 -11.7878   H         1 RES1   0.0000
     8 C8      -2.5944  -1.6589 -13.6671   C.ar      1 RES1   0.0000
     9 C9      -1.5248  -3.3875 -14.8667   C.ar      1 RES1   0.0000
    10 H10     -0.9865  -3.7183 -15.7476   H         1 RES1   0.0000
    11 C11     -1.3894  -5.7298 -13.9807   C.2       1 RES1   0.0000
    12 F12     -2.9742  -0.3555 -13.5734   F         1 RES1   0.0000
    13 N13     -1.2406  -7.9410 -14.1569   N.am      1 RES1   0.0000
    14 C14     -1.5106  -9.4109 -14.3090   C.3       1 RES1   0.0000
    15 H15     -1.0898  -9.7351 -15.2597   H         1 RES1   0.0000
    16 C16      1.2391  -8.1596 -14.5822   C.3       1 RES1   0.0000
    17 H17      1.8645  -8.3610 -13.7149   H         1 RES1   0.0000
    18 H18      0.9609  -9.1126 -15.0275   H         1 RES1   0.0000
    19 H19      1.8321  -7.6064 -15.3075   H         1 RES1   0.0000
    20 C20     -0.0657  -6.0730 -14.1024   C.2       1 RES1   0.0000
    21 C21      1.1240  -5.1843 -14.0637   C.ar      1 RES1   0.0000
    22 O22     -3.3445  -7.1509 -13.9524   O.2       1 RES1   0.0000
    23 C23     -2.1400  -6.9421 -14.0141   C.2       1 RES1   0.0000
    24 N24      0.0498  -7.3983 -14.1985   N.pl3     1 RES1   0.0000
    25 C25     -1.0687 -11.6927 -13.3471   C.3       1 RES1   0.0000
    26 H26     -0.6079 -12.2224 -12.5146   H         1 RES1   0.0000
    27 H27     -0.6306 -12.0361 -14.2830   H         1 RES1   0.0000
    28 C28     -3.2429 -11.2246 -14.4451   C.3       1 RES1   0.0000
    29 H29     -2.8696 -11.5664 -15.4093   H         1 RES1   0.0000
    30 H30     -4.3117 -11.4227 -14.3786   H         1 RES1   0.0000
    31 C31     -3.0040  -9.7275 -14.3195   C.3       1 RES1   0.0000
    32 H32     -3.4695  -9.2205 -15.1634   H         1 RES1   0.0000
    33 H33     -3.4499  -9.3722 -13.3917   H         1 RES1   0.0000
    34 C34     -0.8261 -10.2013 -13.1931   C.3       1 RES1   0.0000
    35 H35     -1.2216  -9.8745 -12.2325   H         1 RES1   0.0000
    36 H36      0.2454 -10.0103 -13.2285   H         1 RES1   0.0000
    37 N37     -2.5389 -11.9647 -13.3569   N.4       1 RES1   1.0000
    38 H38     -2.9295 -11.6818 -12.4637   H         1 RES1   0.0000
    39 H39     -2.6861 -12.9600 -13.4905   H         1 RES1   0.0000
    40 N40      1.9023  -5.1714 -15.1572   N.ar      1 RES1   0.0000
    41 C41      2.5741  -3.6368 -13.0346   C.ar      1 RES1   0.0000
    42 H42      2.8344  -3.0190 -12.1815   H         1 RES1   0.0000
    43 N43      3.7858  -4.3937 -16.2088   N.pl3     1 RES1   0.0000
    44 H44      3.5515  -5.0307 -16.9701   H         1 RES1   0.0000
    45 C45      1.4342  -4.4110 -12.9546   C.ar      1 RES1   0.0000
    46 H46      0.8123  -4.4159 -12.0656   H         1 RES1   0.0000
    47 C47      2.9948  -4.3915 -15.1239   C.ar      1 RES1   0.0000
    48 N48      3.3772  -3.6066 -14.1060   N.ar      1 RES1   0.0000
    49 C49      4.9979  -3.5858 -16.3410   C.3       1 RES1   0.0000
    50 H50      5.7033  -3.8759 -15.5469   H         1 RES1   0.0000
    51 C51      4.7187  -2.1006 -16.2196   C.ar      1 RES1   0.0000
    52 C52      5.6260  -3.9119 -17.6910   C.3       1 RES1   0.0000
    53 H53      6.5533  -3.3600 -17.8290   H         1 RES1   0.0000
    54 H54      5.8492  -4.9740 -17.7681   H         1 RES1   0.0000
    55 H55      4.9511  -3.6480 -18.5025   H         1 RES1   0.0000
    56 C56      4.1913   0.6262 -16.0024   C.ar      1 RES1   0.0000
    57 H57      3.9858   1.6881 -15.9171   H         1 RES1   0.0000
    58 C58      3.4962  -1.5797 -16.6187   C.ar      1 RES1   0.0000
    59 H59      2.7369  -2.2424 -17.0206   H         1 RES1   0.0000
    60 C60      5.6742  -1.2312 -15.7117   C.ar      1 RES1   0.0000
    61 H61      6.6382  -1.6151 -15.3948   H         1 RES1   0.0000
    62 C62      5.4106   0.1239 -15.6040   C.ar      1 RES1   0.0000
    63 H63      6.1667   0.7914 -15.2045   H         1 RES1   0.0000
    64 C64      3.2340  -0.2247 -16.5096   C.ar      1 RES1   0.0000
    65 H65      2.2726   0.1675 -16.8242   H         1 RES1   0.0000
@<TRIPOS>BOND
     1     1     5   ar
     2     1     6   ar
     3     1     2    1
     4     3     8   ar
     5     3     9   ar
     6     3     4    1
     7     5     9   ar
     8     5    11    1
     9     6     8   ar
    10     6     7    1
    11     8    12    1
    12     9    10    1
    13    11    20    2
    14    11    23    1
    15    13    14    1
    16    13    23   am
    17    13    24    1
    18    14    31    1
    19    14    34    1
    20    14    15    1
    21    16    24    1
    22    16    17    1
    23    16    18    1
    24    16    19    1
    25    20    21    1
    26    20    24    1
    27    21    40   ar
    28    21    45   ar
    29    22    23    2
    30    25    34    1
    31    25    37    1
    32    25    26    1
    33    25    27    1
    34    28    31    1
    35    28    37    1
    36    28    29    1
    37    28    30    1
    38    31    32    1
    39    31    33    1
    40    34    35    1
    41    34    36    1
    42    37    38    1
    43    37    39    1
    44    40    47   ar
    45    41    45   ar
    46    41    48   ar
    47    41    42    1
    48    43    47    1
    49    43    49    1
    50    43    44    1
    51    45    46    1
    52    47    48   ar
    53    49    51    1
    54    49    52    1
    55    49    50    1
    56    51    58   ar
    57    51    60   ar
    58    52    53    1
    59    52    54    1
    60    52    55    1
    61    56    62   ar
    62    56    64   ar
    63    56    57    1
    64    58    64   ar
    65    58    59    1
    66    60    62   ar
    67    60    61    1
    68    62    63    1
    69    64    65    1
@<TRIPOS>SUBSTRUCTURE
     1 RES1        1 GROUP             0 ****  ****    0  
@<TRIPOS>MOLECULE
LIGAND_00235
    65    69     1     0     0
SMALL
USER_CHARGES
****
Generated from the CSD

@<TRIPOS>ATOM
     1 C1      -1.4007  -3.4860 -12.8155   C.ar      1 RES1   0.0000
     2 H2      -0.7313  -3.8892 -12.0633   H         1 RES1   0.0000
     3 C3      -3.0769  -2.4228 -14.7369   C.ar      1 RES1   0.0000
     4 H4      -3.7290  -1.9958 -15.4916   H         1 RES1   0.0000
     5 C5      -1.8265  -4.3009 -13.8602   C.ar      1 RES1   0.0000
     6 C6      -1.8093  -2.1676 -12.7186   C.ar      1 RES1   0.0000
     7 H7      -1.4797  -1.5428 -11.8952   H         1 RES1   0.0000
     8 C8      -2.6363  -1.6701 -13.6859   C.ar      1 RES1   0.0000
     9 C9      -2.6721  -3.7428 -14.8147   C.ar      1 RES1   0.0000
    10 H10     -3.0280  -4.3519 -15.6378   H         1 RES1   0.0000
    11 C11     -1.3894  -5.7298 -13.9806   C.2       1 RES1   0.0000
    12 F12     -3.0378  -0.3727 -13.5999   F         1 RES1   0.0000
    13 N13     -1.2406  -7.9410 -14.1570   N.am      1 RES1   0.0000
    14 C14     -1.5106  -9.4109 -14.3092   C.3       1 RES1   0.0000
    15 H15     -1.0896  -9.7351 -15.2598   H         1 RES1   0.0000
    16 C16      1.2391  -8.1596 -14.5825   C.3       1 RES1   0.0000
    17 H17      1.8631  -8.3634 -13.7149   H         1 RES1   0.0000
    18 H18      0.9608  -9.1113 -15.0304   H         1 RES1   0.0000
    19 H19      1.8335  -7.6051 -15.3056   H         1 RES1   0.0000
    20 C20     -0.0657  -6.0730 -14.1024   C.2       1 RES1   0.0000
    21 C21      1.1240  -5.1843 -14.0637   C.ar      1 RES1   0.0000
    22 O22     -3.3445  -7.1509 -13.9523   O.2       1 RES1   0.0000
    23 C23     -2.1400  -6.9421 -14.0140   C.2       1 RES1   0.0000
    24 N24      0.0498  -7.3983 -14.1986   N.pl3     1 RES1   0.0000
    25 C25     -1.0689 -11.6927 -13.3473   C.3       1 RES1   0.0000
    26 H26     -0.6083 -12.2225 -12.5148   H         1 RES1   0.0000
    27 H27     -0.6306 -12.0361 -14.2832   H         1 RES1   0.0000
    28 C28     -3.2429 -11.2245 -14.4457   C.3       1 RES1   0.0000
    29 H29     -2.8695 -11.5663 -15.4099   H         1 RES1   0.0000
    30 H30     -4.3117 -11.4226 -14.3795   H         1 RES1   0.0000
    31 C31     -3.0040  -9.7274 -14.3201   C.3       1 RES1   0.0000
    32 H32     -3.4694  -9.2204 -15.1640   H         1 RES1   0.0000
    33 H33     -3.4501  -9.3722 -13.3923   H         1 RES1   0.0000
    34 C34     -0.8264 -10.2013 -13.1932   C.3       1 RES1   0.0000
    35 H35     -1.2220  -9.8746 -12.2327   H         1 RES1   0.0000
    36 H36      0.2452 -10.0104 -13.2283   H         1 RES1   0.0000
    37 N37     -2.5392 -11.9647 -13.3574   N.4       1 RES1   1.0000
    38 H38     -2.9299 -11.6819 -12.4643   H         1 RES1   0.0000
    39 H39     -2.6864 -12.9600 -13.4911   H         1 RES1   0.0000
    40 N40      2.0256  -5.4261 -13.0991   N.ar      1 RES1   0.0000
    41 C41      2.4404  -3.3801 -14.8176   C.ar      1 RES1   0.0000
    42 H42      2.6033  -2.5644 -15.5144   H         1 RES1   0.0000
    43 N43      3.9844  -4.8403 -12.0608   N.pl3     1 RES1   0.0000
    44 H44      3.7745  -5.5726 -11.3826   H         1 RES1   0.0000
    45 C45      1.3007  -4.1448 -14.9650   C.ar      1 RES1   0.0000
    46 H46      0.5769  -3.9404 -15.7469   H         1 RES1   0.0000
    47 C47      3.0924  -4.6130 -13.0382   C.ar      1 RES1   0.0000
    48 N48      3.3555  -3.5881 -13.8620   N.ar      1 RES1   0.0000
    49 C49      5.2080  -4.0617 -11.8705   C.3       1 RES1   0.0000
    50 H50      4.9326  -3.0120 -11.6850   H         1 RES1   0.0000
    51 C51      6.1206  -4.1147 -13.0800   C.ar      1 RES1   0.0000
    52 C52      5.9136  -4.6044 -10.6333   C.3       1 RES1   0.0000
    53 H53      6.8187  -4.0376 -10.4250   H         1 RES1   0.0000
    54 H54      5.2672  -4.5432  -9.7603   H         1 RES1   0.0000
    55 H55      6.1922  -5.6464 -10.7760   H         1 RES1   0.0000
    56 C56      7.7922  -4.2262 -15.3057   C.ar      1 RES1   0.0000
    57 H57      8.4427  -4.2692 -16.1730   H         1 RES1   0.0000
    58 C58      6.1358  -5.2328 -13.9014   C.ar      1 RES1   0.0000
    59 H59      5.4893  -6.0738 -13.6736   H         1 RES1   0.0000
    60 C60      6.9595  -3.0535 -13.3914   C.ar      1 RES1   0.0000
    61 H61      6.9664  -2.1693 -12.7627   H         1 RES1   0.0000
    62 C62      7.7896  -3.1102 -14.4982   C.ar      1 RES1   0.0000
    63 H63      8.4395  -2.2729 -14.7297   H         1 RES1   0.0000
    64 C64      6.9659  -5.2874 -15.0081   C.ar      1 RES1   0.0000
    65 H65      6.9653  -6.1679 -15.6420   H         1 RES1   0.0000
@<TRIPOS>BOND
     1     1     5   ar
     2     1     6   ar
     3     1     2    1
     4     3     8   ar
     5     3     9   ar
     6     3     4    1
     7     5     9   ar
     8     5    11    1
     9     6     8   ar
    10     6     7    1
    11     8    12    1
    12     9    10    1
    13    11    20    2
    14    11    23    1
    15    13    14    1
    16    13    23   am
    17    13    24    1
    18    14    31    1
    19    14    34    1
    20    14    15    1
    21    16    24    1
    22    16    17    1
    23    16    18    1
    24    16    19    1
    25    20    21    1
    26    20    24    1
    27    21    40   ar
    28    21    45   ar
    29    22    23    2
    30    25    34    1
    31    25    37    1
    32    25    26    1
    33    25    27    1
    34    28    31    1
    35    28    37    1
    36    28    29    1
    37    28    30    1
    38    31    32    1
    39    31    33    1
    40    34    35    1
    41    34    36    1
    42    37    38    1
    43    37    39    1
    44    40    47   ar
    45    41    45   ar
    46    41    48   ar
    47    41    42    1
    48    43    47    1
    49    43    49    1
    50    43    44    1
    51    45    46    1
    52    47    48   ar
    53    49    51    1
    54    49    52    1
    55    49    50    1
    56    51    58   ar
    57    51    60   ar
    58    52    53    1
    59    52    54    1
    60    52    55    1
    61    56    62   ar
    62    56    64   ar
    63    56    57    1
    64    58    64   ar
    65    58    59    1
    66    60    62   ar
    67    60    61    1
    68    62    63    1
    69    64    65    1
@<TRIPOS>SUBSTRUCTURE
     1 RES1        1 GROUP             0 ****  ****    0  
@<TRIPOS>MOLECULE
LIGAND_00236
    65    69     1     0     0
SMALL
USER_CHARGES
****
Generated from the CSD

@<TRIPOS>ATOM
     1 C1      -0.0626  -3.9112 -15.8981   C.ar      1 RES1   0.0000
     2 H2      -0.8423  -4.2906 -16.5497   H         1 RES1   0.0000
     3 C3       1.9028  -2.9029 -14.2392   C.ar      1 RES1   0.0000
     4 H4       2.6706  -2.4965 -13.5892   H         1 RES1   0.0000
     5 C5       0.2511  -4.6025 -14.7318   C.ar      1 RES1   0.0000
     6 C6       0.5963  -2.7442 -16.2425   C.ar      1 RES1   0.0000
     7 H7       0.3514  -2.2175 -17.1588   H         1 RES1   0.0000
     8 C8       1.5617  -2.2695 -15.4001   C.ar      1 RES1   0.0000
     9 C9       1.2462  -4.0755 -13.9134   C.ar      1 RES1   0.0000
    10 H10      1.5200  -4.5927 -13.0009   H         1 RES1   0.0000
    11 C11     -0.4566  -5.8658 -14.3436   C.2       1 RES1   0.0000
    12 F12      2.2101  -1.1194 -15.7297   F         1 RES1   0.0000
    13 N13     -1.2977  -7.9184 -14.1950   N.am      1 RES1   0.0000
    14 C14     -1.6472  -9.3662 -14.3901   C.3       1 RES1   0.0000
    15 H15     -1.1920  -9.7012 -15.3209   H         1 RES1   0.0000
    16 C16     -2.2898  -7.7956 -11.8759   C.3       1 RES1   0.0000
    17 H17     -2.9101  -7.0735 -11.3489   H         1 RES1   0.0000
    18 H18     -2.9153  -8.6425 -12.1505   H         1 RES1   0.0000
    19 H19     -1.5226  -8.1487 -11.1901   H         1 RES1   0.0000
    20 C20     -1.1594  -5.9688 -13.1688   C.2       1 RES1   0.0000
    21 C21     -1.4160  -4.9157 -12.1531   C.ar      1 RES1   0.0000
    22 O22     -0.0893  -7.5273 -16.0603   O.2       1 RES1   0.0000
    23 C23     -0.5538  -7.1279 -15.0005   C.2       1 RES1   0.0000
    24 N24     -1.6839  -7.1905 -13.0624   N.pl3     1 RES1   0.0000
    25 C25     -1.4023 -11.6854 -13.4477   C.3       1 RES1   0.0000
    26 H26     -1.0241 -12.2554 -12.6003   H         1 RES1   0.0000
    27 H27     -0.9318 -12.0409 -14.3632   H         1 RES1   0.0000
    28 C28     -3.4759 -11.0669 -14.6599   C.3       1 RES1   0.0000
    29 H29     -3.0682 -11.4163 -15.6073   H         1 RES1   0.0000
    30 H30     -4.5568 -11.1995 -14.6588   H         1 RES1   0.0000
    31 C31     -3.1540  -9.5895 -14.4925   C.3       1 RES1   0.0000
    32 H32     -3.5376  -9.0418 -15.3521   H         1 RES1   0.0000
    33 H33     -3.6310  -9.2216 -13.5853   H         1 RES1   0.0000
    34 C34     -1.0788 -10.2145 -13.2518   C.3       1 RES1   0.0000
    35 H35     -1.5092  -9.8786 -12.3095   H         1 RES1   0.0000
    36 H36      0.0026 -10.0896 -13.2218   H         1 RES1   0.0000
    37 N37     -2.8832 -11.8658 -13.5472   N.4       1 RES1   1.0000
    38 H38     -3.3075 -11.5730 -12.6728   H         1 RES1   0.0000
    39 H39     -3.0827 -12.8479 -13.7079   H         1 RES1   0.0000
    40 N40     -1.4457  -5.3100 -10.8704   N.ar      1 RES1   0.0000
    41 C41     -1.8713  -2.7071 -11.4663   C.ar      1 RES1   0.0000
    42 H42     -2.0353  -1.6631 -11.7123   H         1 RES1   0.0000
    43 N43     -1.7536  -4.7680  -8.6637   N.pl3     1 RES1   0.0000
    44 H44     -1.6416  -5.7624  -8.4660   H         1 RES1   0.0000
    45 C45     -1.6289  -3.5895 -12.4997   C.ar      1 RES1   0.0000
    46 H46     -1.6086  -3.2613 -13.5337   H         1 RES1   0.0000
    47 C47     -1.7025  -4.3713  -9.9453   C.ar      1 RES1   0.0000
    48 N48     -1.9163  -3.0679 -10.1773   N.ar      1 RES1   0.0000
    49 C49     -2.0226  -3.8728  -7.5386   C.3       1 RES1   0.0000
    50 H50     -2.7080  -3.0796  -7.8754   H         1 RES1   0.0000
    51 C51     -0.7616  -3.2250  -7.0012   C.ar      1 RES1   0.0000
    52 C52     -2.7187  -4.6881  -6.4552   C.3       1 RES1   0.0000
    53 H53     -2.8988  -4.0808  -5.5706   H         1 RES1   0.0000
    54 H54     -3.6765  -5.0644  -6.8085   H         1 RES1   0.0000
    55 H55     -2.1075  -5.5393  -6.1626   H         1 RES1   0.0000
    56 C56      1.5574  -2.0467  -6.0042   C.ar      1 RES1   0.0000
    57 H57      2.4609  -1.5880  -5.6165   H         1 RES1   0.0000
    58 C58     -0.0210  -3.8460  -6.0059   C.ar      1 RES1   0.0000
    59 H59     -0.3493  -4.8017  -5.6109   H         1 RES1   0.0000
    60 C60     -0.3219  -2.0014  -7.4873   C.ar      1 RES1   0.0000
    61 H61     -0.8855  -1.4959  -8.2645   H         1 RES1   0.0000
    62 C62      0.8312  -1.4171  -6.9911   C.ar      1 RES1   0.0000
    63 H63      1.1633  -0.4607  -7.3810   H         1 RES1   0.0000
    64 C64      1.1321  -3.2606  -5.5114   C.ar      1 RES1   0.0000
    65 H65      1.7017  -3.7594  -4.7342   H         1 RES1   0.0000
@<TRIPOS>BOND
     1     1     5   ar
     2     1     6   ar
     3     1     2    1
     4     3     8   ar
     5     3     9   ar
     6     3     4    1
     7     5     9   ar
     8     5    11    1
     9     6     8   ar
    10     6     7    1
    11     8    12    1
    12     9    10    1
    13    11    20    2
    14    11    23    1
    15    13    14    1
    16    13    23   am
    17    13    24    1
    18    14    31    1
    19    14    34    1
    20    14    15    1
    21    16    24    1
    22    16    17    1
    23    16    18    1
    24    16    19    1
    25    20    21    1
    26    20    24    1
    27    21    40   ar
    28    21    45   ar
    29    22    23    2
    30    25    34    1
    31    25    37    1
    32    25    26    1
    33    25    27    1
    34    28    31    1
    35    28    37    1
    36    28    29    1
    37    28    30    1
    38    31    32    1
    39    31    33    1
    40    34    35    1
    41    34    36    1
    42    37    38    1
    43    37    39    1
    44    40    47   ar
    45    41    45   ar
    46    41    48   ar
    47    41    42    1
    48    43    47    1
    49    43    49    1
    50    43    44    1
    51    45    46    1
    52    47    48   ar
    53    49    51    1
    54    49    52    1
    55    49    50    1
    56    51    58   ar
    57    51    60   ar
    58    52    53    1
    59    52    54    1
    60    52    55    1
    61    56    62   ar
    62    56    64   ar
    63    56    57    1
    64    58    64   ar
    65    58    59    1
    66    60    62   ar
    67    60    61    1
    68    62    63    1
    69    64    65    1
@<TRIPOS>SUBSTRUCTURE
     1 RES1        1 GROUP             0 ****  ****    0  
@<TRIPOS>MOLECULE
LIGAND_00237
    65    69     1     0     0
SMALL
USER_CHARGES
****
Generated from the CSD

@<TRIPOS>ATOM
     1 C1      -1.2652  -3.4291 -15.0881   C.ar      1 RES1   0.0000
     2 H2      -2.2785  -3.5817 -14.7326   H         1 RES1   0.0000
     3 C3       1.3184  -3.0017 -15.9680   C.ar      1 RES1   0.0000
     4 H4       2.3331  -2.8238 -16.3086   H         1 RES1   0.0000
     5 C5      -0.3498  -4.4749 -15.0159   C.ar      1 RES1   0.0000
     6 C6      -0.9082  -2.1941 -15.5997   C.ar      1 RES1   0.0000
     7 H7      -1.6314  -1.3878 -15.6609   H         1 RES1   0.0000
     8 C8       0.3779  -2.0130 -16.0244   C.ar      1 RES1   0.0000
     9 C9       0.9451  -4.2354 -15.4672   C.ar      1 RES1   0.0000
    10 H10      1.6811  -5.0305 -15.4315   H         1 RES1   0.0000
    11 C11     -0.7208  -5.8171 -14.4608   C.2       1 RES1   0.0000
    12 F12      0.7376  -0.7992 -16.5237   F         1 RES1   0.0000
    13 N13     -1.1161  -7.9735 -14.0919   N.am      1 RES1   0.0000
    14 C14     -1.2159  -9.4702 -14.1733   C.3       1 RES1   0.0000
    15 H15     -0.8700  -9.7787 -15.1587   H         1 RES1   0.0000
    16 C16     -1.6625  -7.8818 -11.6280   C.3       1 RES1   0.0000
    17 H17     -2.2199  -7.2116 -10.9770   H         1 RES1   0.0000
    18 H18     -2.2385  -8.7976 -11.7442   H         1 RES1   0.0000
    19 H19     -0.7246  -8.1309 -11.1360   H         1 RES1   0.0000
    20 C20     -1.1594  -5.9688 -13.1688   C.2       1 RES1   0.0000
    21 C21     -1.4160  -4.9157 -12.1531   C.ar      1 RES1   0.0000
    22 O22     -0.3735  -7.4928 -16.1679   O.2       1 RES1   0.0000
    23 C23     -0.6988  -7.1159 -15.0497   C.2       1 RES1   0.0000
    24 N24     -1.4143  -7.2555 -12.9270   N.pl3     1 RES1   0.0000
    25 C25     -0.3849 -11.6414 -13.2131   C.3       1 RES1   0.0000
    26 H26      0.2311 -12.0778 -12.4282   H         1 RES1   0.0000
    27 H27     -0.0178 -11.9664 -14.1855   H         1 RES1   0.0000
    28 C28     -2.7122 -11.4842 -14.0561   C.3       1 RES1   0.0000
    29 H29     -2.4125 -11.8166 -15.0489   H         1 RES1   0.0000
    30 H30     -3.7331 -11.8075 -13.8580   H         1 RES1   0.0000
    31 C31     -2.6494  -9.9654 -13.9980   C.3       1 RES1   0.0000
    32 H32     -3.2685  -9.5526 -14.7931   H         1 RES1   0.0000
    33 H33     -3.0265  -9.6300 -13.0330   H         1 RES1   0.0000
    34 C34     -0.3144 -10.1267 -13.1271   C.3       1 RES1   0.0000
    35 H35     -0.6345  -9.8121 -12.1348   H         1 RES1   0.0000
    36 H36      0.7136  -9.8089 -13.2945   H         1 RES1   0.0000
    37 N37     -1.8009 -12.0896 -13.0410   N.4       1 RES1   1.0000
    38 H38     -2.1184 -11.8207 -12.1152   H         1 RES1   0.0000
    39 H39     -1.8370 -13.1000 -13.1308   H         1 RES1   0.0000
    40 N40     -2.5040  -5.0736 -11.3829   N.ar      1 RES1   0.0000
    41 C41     -0.9401  -2.8952 -11.0360   C.ar      1 RES1   0.0000
    42 H42     -0.3048  -2.0264 -10.8983   H         1 RES1   0.0000
    43 N43     -3.8600  -4.2605  -9.7221   N.pl3     1 RES1   0.0000
    44 H44     -4.0552  -3.5472  -9.0196   H         1 RES1   0.0000
    45 C45     -0.5883  -3.8123 -12.0057   C.ar      1 RES1   0.0000
    46 H46      0.2923  -3.6750 -12.6245   H         1 RES1   0.0000
    47 C47     -2.7605  -4.1147 -10.4787   C.ar      1 RES1   0.0000
    48 N48     -2.0225  -3.0172 -10.2566   N.ar      1 RES1   0.0000
    49 C49     -4.7613  -5.4100  -9.7990   C.3       1 RES1   0.0000
    50 H50     -5.0641  -5.5509 -10.8481   H         1 RES1   0.0000
    51 C51     -6.0085  -5.2237  -8.9574   C.ar      1 RES1   0.0000
    52 C52     -3.9813  -6.6399  -9.3495   C.3       1 RES1   0.0000
    53 H53     -4.1218  -7.4627 -10.0474   H         1 RES1   0.0000
    54 H54     -2.9166  -6.4236  -9.2908   H         1 RES1   0.0000
    55 H55     -4.3147  -6.9686  -8.3674   H         1 RES1   0.0000
    56 C56     -8.2915  -4.8800  -7.3984   C.ar      1 RES1   0.0000
    57 H57     -9.1806  -4.7454  -6.7915   H         1 RES1   0.0000
    58 C58     -5.9101  -5.0303  -7.5871   C.ar      1 RES1   0.0000
    59 H59     -4.9323  -5.0132  -7.1172   H         1 RES1   0.0000
    60 C60     -7.2712  -5.2445  -9.5337   C.ar      1 RES1   0.0000
    61 H61     -7.3732  -5.3960 -10.6032   H         1 RES1   0.0000
    62 C62     -8.4051  -5.0732  -8.7576   C.ar      1 RES1   0.0000
    63 H63     -9.3854  -5.0911  -9.2219   H         1 RES1   0.0000
    64 C64     -7.0449  -4.8584  -6.8127   C.ar      1 RES1   0.0000
    65 H65     -6.9517  -4.7064  -5.7425   H         1 RES1   0.0000
@<TRIPOS>BOND
     1     1     5   ar
     2     1     6   ar
     3     1     2    1
     4     3     8   ar
     5     3     9   ar
     6     3     4    1
     7     5     9   ar
     8     5    11    1
     9     6     8   ar
    10     6     7    1
    11     8    12    1
    12     9    10    1
    13    11    20    2
    14    11    23    1
    15    13    14    1
    16    13    23   am
    17    13    24    1
    18    14    31    1
    19    14    34    1
    20    14    15    1
    21    16    24    1
    22    16    17    1
    23    16    18    1
    24    16    19    1
    25    20    21    1
    26    20    24    1
    27    21    40   ar
    28    21    45   ar
    29    22    23    2
    30    25    34    1
    31    25    37    1
    32    25    26    1
    33    25    27    1
    34    28    31    1
    35    28    37    1
    36    28    29    1
    37    28    30    1
    38    31    32    1
    39    31    33    1
    40    34    35    1
    41    34    36    1
    42    37    38    1
    43    37    39    1
    44    40    47   ar
    45    41    45   ar
    46    41    48   ar
    47    41    42    1
    48    43    47    1
    49    43    49    1
    50    43    44    1
    51    45    46    1
    52    47    48   ar
    53    49    51    1
    54    49    52    1
    55    49    50    1
    56    51    58   ar
    57    51    60   ar
    58    52    53    1
    59    52    54    1
    60    52    55    1
    61    56    62   ar
    62    56    64   ar
    63    56    57    1
    64    58    64   ar
    65    58    59    1
    66    60    62   ar
    67    60    61    1
    68    62    63    1
    69    64    65    1
@<TRIPOS>SUBSTRUCTURE
     1 RES1        1 GROUP             0 ****  ****    0  
@<TRIPOS>MOLECULE
LIGAND_00238
    65    69     1     0     0
SMALL
USER_CHARGES
****
Generated from the CSD

@<TRIPOS>ATOM
     1 C1      -0.0619  -3.9115 -15.8982   C.ar      1 RES1   0.0000
     2 H2      -0.8413  -4.2911 -16.5501   H         1 RES1   0.0000
     3 C3       1.9028  -2.9028 -14.2386   C.ar      1 RES1   0.0000
     4 H4       2.6703  -2.4963 -13.5883   H         1 RES1   0.0000
     5 C5       0.2513  -4.6026 -14.7316   C.ar      1 RES1   0.0000
     6 C6       0.5971  -2.7446 -16.2426   C.ar      1 RES1   0.0000
     7 H7       0.3526  -2.2180 -17.1590   H         1 RES1   0.0000
     8 C8       1.5622  -2.2696 -15.3998   C.ar      1 RES1   0.0000
     9 C9       1.2460  -4.0754 -13.9129   C.ar      1 RES1   0.0000
    10 H10      1.5194  -4.5924 -13.0002   H         1 RES1   0.0000
    11 C11     -0.4565  -5.8658 -14.3435   C.2       1 RES1   0.0000
    12 F12      2.2107  -1.1196 -15.7294   F         1 RES1   0.0000
    13 N13     -1.2978  -7.9183 -14.1950   N.am      1 RES1   0.0000
    14 C14     -1.6474  -9.3662 -14.3902   C.3       1 RES1   0.0000
    15 H15     -1.1919  -9.7012 -15.3209   H         1 RES1   0.0000
    16 C16     -2.2901  -7.7956 -11.8760   C.3       1 RES1   0.0000
    17 H17     -2.9096  -7.0732 -11.3485   H         1 RES1   0.0000
    18 H18     -2.9164  -8.6418 -12.1508   H         1 RES1   0.0000
    19 H19     -1.5229  -8.1496 -11.1906   H         1 RES1   0.0000
    20 C20     -1.1594  -5.9688 -13.1688   C.2       1 RES1   0.0000
    21 C21     -1.4160  -4.9157 -12.1531   C.ar      1 RES1   0.0000
    22 O22     -0.0892  -7.5274 -16.0602   O.2       1 RES1   0.0000
    23 C23     -0.5537  -7.1279 -15.0005   C.2       1 RES1   0.0000
    24 N24     -1.6840  -7.1905 -13.0625   N.pl3     1 RES1   0.0000
    25 C25     -1.4030 -11.6854 -13.4476   C.3       1 RES1   0.0000
    26 H26     -1.0252 -12.2553 -12.6001   H         1 RES1   0.0000
    27 H27     -0.9322 -12.0409 -14.3630   H         1 RES1   0.0000
    28 C28     -3.4762 -11.0666 -14.6605   C.3       1 RES1   0.0000
    29 H29     -3.0683 -11.4162 -15.6078   H         1 RES1   0.0000
    30 H30     -4.5571 -11.1991 -14.6597   H         1 RES1   0.0000
    31 C31     -3.1542  -9.5893 -14.4931   C.3       1 RES1   0.0000
    32 H32     -3.5374  -9.0416 -15.3528   H         1 RES1   0.0000
    33 H33     -3.6314  -9.2213 -13.5860   H         1 RES1   0.0000
    34 C34     -1.0794 -10.2144 -13.2517   C.3       1 RES1   0.0000
    35 H35     -1.5100  -9.8785 -12.3096   H         1 RES1   0.0000
    36 H36      0.0020 -10.0897 -13.2214   H         1 RES1   0.0000
    37 N37     -2.8839 -11.8655 -13.5476   N.4       1 RES1   1.0000
    38 H38     -3.3084 -11.5727 -12.6734   H         1 RES1   0.0000
    39 H39     -3.0834 -12.8477 -13.7083   H         1 RES1   0.0000
    40 N40     -1.4457  -5.3100 -10.8704   N.ar      1 RES1   0.0000
    41 C41     -1.8713  -2.7071 -11.4663   C.ar      1 RES1   0.0000
    42 H42     -2.0353  -1.6631 -11.7123   H         1 RES1   0.0000
    43 N43     -1.7536  -4.7680  -8.6637   N.pl3     1 RES1   0.0000
    44 H44     -1.6219  -5.7596  -8.4644   H         1 RES1   0.0000
    45 C45     -1.6289  -3.5895 -12.4997   C.ar      1 RES1   0.0000
    46 H46     -1.6086  -3.2613 -13.5337   H         1 RES1   0.0000
    47 C47     -1.7025  -4.3713  -9.9453   C.ar      1 RES1   0.0000
    48 N48     -1.9163  -3.0679 -10.1773   N.ar      1 RES1   0.0000
    49 C49     -2.0489  -3.8778  -7.5412   C.3       1 RES1   0.0000
    50 H50     -1.3413  -3.0346  -7.5645   H         1 RES1   0.0000
    51 C51     -1.9237  -4.5761  -6.2014   C.ar      1 RES1   0.0000
    52 C52     -3.4587  -3.3340  -7.7409   C.3       1 RES1   0.0000
    53 H53     -3.9093  -3.0693  -6.7866   H         1 RES1   0.0000
    54 H54     -3.4460  -2.4448  -8.3678   H         1 RES1   0.0000
    55 H55     -4.0928  -4.0770  -8.2200   H         1 RES1   0.0000
    56 C56     -1.7048  -5.8693  -3.7437   C.ar      1 RES1   0.0000
    57 H57     -1.6188  -6.3733  -2.7868   H         1 RES1   0.0000
    58 C58     -2.7132  -5.6781  -5.9059   C.ar      1 RES1   0.0000
    59 H59     -3.4247  -6.0400  -6.6408   H         1 RES1   0.0000
    60 C60     -1.0236  -4.1310  -5.2429   C.ar      1 RES1   0.0000
    61 H61     -0.3969  -3.2701  -5.4506   H         1 RES1   0.0000
    62 C62     -0.9156  -4.7750  -4.0219   C.ar      1 RES1   0.0000
    63 H63     -0.2072  -4.4164  -3.2826   H         1 RES1   0.0000
    64 C64     -2.6034  -6.3212  -4.6848   C.ar      1 RES1   0.0000
    65 H65     -3.2264  -7.1829  -4.4691   H         1 RES1   0.0000
@<TRIPOS>BOND
     1     1     5   ar
     2     1     6   ar
     3     1     2    1
     4     3     8   ar
     5     3     9   ar
     6     3     4    1
     7     5     9   ar
     8     5    11    1
     9     6     8   ar
    10     6     7    1
    11     8    12    1
    12     9    10    1
    13    11    20    2
    14    11    23    1
    15    13    14    1
    16    13    23   am
    17    13    24    1
    18    14    31    1
    19    14    34    1
    20    14    15    1
    21    16    24    1
    22    16    17    1
    23    16    18    1
    24    16    19    1
    25    20    21    1
    26    20    24    1
    27    21    40   ar
    28    21    45   ar
    29    22    23    2
    30    25    34    1
    31    25    37    1
    32    25    26    1
    33    25    27    1
    34    28    31    1
    35    28    37    1
    36    28    29    1
    37    28    30    1
    38    31    32    1
    39    31    33    1
    40    34    35    1
    41    34    36    1
    42    37    38    1
    43    37    39    1
    44    40    47   ar
    45    41    45   ar
    46    41    48   ar
    47    41    42    1
    48    43    47    1
    49    43    49    1
    50    43    44    1
    51    45    46    1
    52    47    48   ar
    53    49    51    1
    54    49    52    1
    55    49    50    1
    56    51    58   ar
    57    51    60   ar
    58    52    53    1
    59    52    54    1
    60    52    55    1
    61    56    62   ar
    62    56    64   ar
    63    56    57    1
    64    58    64   ar
    65    58    59    1
    66    60    62   ar
    67    60    61    1
    68    62    63    1
    69    64    65    1
@<TRIPOS>SUBSTRUCTURE
     1 RES1        1 GROUP             0 ****  ****    0  
@<TRIPOS>MOLECULE
LIGAND_00239
    65    69     1     0     0
SMALL
USER_CHARGES
****
Generated from the CSD

@<TRIPOS>ATOM
     1 C1      -1.4351  -3.4527 -15.0987   C.ar      1 RES1   0.0000
     2 H2      -2.4254  -3.6381 -14.6971   H         1 RES1   0.0000
     3 C3       1.0899  -2.9417 -16.0964   C.ar      1 RES1   0.0000
     4 H4       2.0813  -2.7308 -16.4833   H         1 RES1   0.0000
     5 C5      -0.4804  -4.4646 -15.0596   C.ar      1 RES1   0.0000
     6 C6      -1.1458  -2.2104 -15.6350   C.ar      1 RES1   0.0000
     7 H7      -1.8996  -1.4310 -15.6698   H         1 RES1   0.0000
     8 C8       0.1129  -1.9876 -16.1181   C.ar      1 RES1   0.0000
     9 C9       0.7838  -4.1833 -15.5701   C.ar      1 RES1   0.0000
    10 H10      1.5487  -4.9513 -15.5614   H         1 RES1   0.0000
    11 C11     -0.7779  -5.8140 -14.4784   C.2       1 RES1   0.0000
    12 F12      0.4061  -0.7664 -16.6420   F         1 RES1   0.0000
    13 N13     -1.0758  -7.9799 -14.0751   N.am      1 RES1   0.0000
    14 C14     -1.1216  -9.4800 -14.1393   C.3       1 RES1   0.0000
    15 H15     -0.8024  -9.7855 -15.1346   H         1 RES1   0.0000
    16 C16     -1.5283  -7.8834 -11.5924   C.3       1 RES1   0.0000
    17 H17     -2.0813  -7.2262 -10.9245   H         1 RES1   0.0000
    18 H18     -2.0769  -8.8193 -11.6771   H         1 RES1   0.0000
    19 H19     -0.5631  -8.0958 -11.1376   H         1 RES1   0.0000
    20 C20     -1.1594  -5.9688 -13.1688   C.2       1 RES1   0.0000
    21 C21     -1.4160  -4.9157 -12.1531   C.ar      1 RES1   0.0000
    22 O22     -0.4340  -7.4929 -16.1830   O.2       1 RES1   0.0000
    23 C23     -0.7294  -7.1170 -15.0562   C.2       1 RES1   0.0000
    24 N24     -1.3553  -7.2616 -12.9057   N.pl3     1 RES1   0.0000
    25 C25     -0.1720 -11.6083 -13.1929   C.3       1 RES1   0.0000
    26 H26      0.4899 -12.0129 -12.4287   H         1 RES1   0.0000
    27 H27      0.1695 -11.9292 -14.1759   H         1 RES1   0.0000
    28 C28     -2.5344 -11.5478 -13.9461   C.3       1 RES1   0.0000
    29 H29     -2.2607 -11.8789 -14.9468   H         1 RES1   0.0000
    30 H30     -3.5338 -11.9073 -13.7055   H         1 RES1   0.0000
    31 C31     -2.5273 -10.0271 -13.9040   C.3       1 RES1   0.0000
    32 H32     -3.1919  -9.6463 -14.6780   H         1 RES1   0.0000
    33 H33     -2.8795  -9.6962 -12.9281   H         1 RES1   0.0000
    34 C34     -0.1561 -10.0912 -13.1231   C.3       1 RES1   0.0000
    35 H35     -0.4495  -9.7786 -12.1220   H         1 RES1   0.0000
    36 H36      0.8519  -9.7366 -13.3332   H         1 RES1   0.0000
    37 N37     -1.5622 -12.1078 -12.9618   N.4       1 RES1   1.0000
    38 H38     -1.8539 -11.8415 -12.0268   H         1 RES1   0.0000
    39 H39     -1.5632 -13.1197 -13.0412   H         1 RES1   0.0000
    40 N40     -0.5363  -3.9033 -12.0992   N.ar      1 RES1   0.0000
    41 C41     -2.6224  -3.9386 -10.3792   C.ar      1 RES1   0.0000
    42 H42     -3.4652  -3.9562  -9.6960   H         1 RES1   0.0000
    43 N43      0.1472  -1.9567 -11.0984   N.pl3     1 RES1   0.0000
    44 H44      0.9568  -1.9929 -11.7177   H         1 RES1   0.0000
    45 C45     -2.4995  -4.9698 -11.2885   C.ar      1 RES1   0.0000
    46 H46     -3.2150  -5.7847 -11.3233   H         1 RES1   0.0000
    47 C47     -0.7437  -2.9588 -11.1676   C.ar      1 RES1   0.0000
    48 N48     -1.7589  -2.9185 -10.2924   N.ar      1 RES1   0.0000
    49 C49      0.0625  -0.8490 -10.1468   C.3       1 RES1   0.0000
    50 H50     -0.9940  -0.6954  -9.8779   H         1 RES1   0.0000
    51 C51      0.6086   0.4454 -10.7167   C.ar      1 RES1   0.0000
    52 C52      0.8282  -1.2566  -8.8935   C.3       1 RES1   0.0000
    53 H53      0.7705  -0.4782  -8.1355   H         1 RES1   0.0000
    54 H54      0.4200  -2.1722  -8.4706   H         1 RES1   0.0000
    55 H55      1.8777  -1.4281  -9.1232   H         1 RES1   0.0000
    56 C56      1.6225   2.8158 -11.7720   C.ar      1 RES1   0.0000
    57 H57      2.0168   3.7390 -12.1835   H         1 RES1   0.0000
    58 C58      1.6707   0.4283 -11.6093   C.ar      1 RES1   0.0000
    59 H59      2.1118  -0.5196 -11.8992   H         1 RES1   0.0000
    60 C60      0.0642   1.6714 -10.3596   C.ar      1 RES1   0.0000
    61 H61     -0.7658   1.7099  -9.6618   H         1 RES1   0.0000
    62 C62      0.5689   2.8488 -10.8852   C.ar      1 RES1   0.0000
    63 H63      0.1329   3.7996 -10.5975   H         1 RES1   0.0000
    64 C64      2.1737   1.6065 -12.1344   C.ar      1 RES1   0.0000
    65 H65      3.0035   1.5769 -12.8327   H         1 RES1   0.0000
@<TRIPOS>BOND
     1     1     5   ar
     2     1     6   ar
     3     1     2    1
     4     3     8   ar
     5     3     9   ar
     6     3     4    1
     7     5     9   ar
     8     5    11    1
     9     6     8   ar
    10     6     7    1
    11     8    12    1
    12     9    10    1
    13    11    20    2
    14    11    23    1
    15    13    14    1
    16    13    23   am
    17    13    24    1
    18    14    31    1
    19    14    34    1
    20    14    15    1
    21    16    24    1
    22    16    17    1
    23    16    18    1
    24    16    19    1
    25    20    21    1
    26    20    24    1
    27    21    40   ar
    28    21    45   ar
    29    22    23    2
    30    25    34    1
    31    25    37    1
    32    25    26    1
    33    25    27    1
    34    28    31    1
    35    28    37    1
    36    28    29    1
    37    28    30    1
    38    31    32    1
    39    31    33    1
    40    34    35    1
    41    34    36    1
    42    37    38    1
    43    37    39    1
    44    40    47   ar
    45    41    45   ar
    46    41    48   ar
    47    41    42    1
    48    43    47    1
    49    43    49    1
    50    43    44    1
    51    45    46    1
    52    47    48   ar
    53    49    51    1
    54    49    52    1
    55    49    50    1
    56    51    58   ar
    57    51    60   ar
    58    52    53    1
    59    52    54    1
    60    52    55    1
    61    56    62   ar
    62    56    64   ar
    63    56    57    1
    64    58    64   ar
    65    58    59    1
    66    60    62   ar
    67    60    61    1
    68    62    63    1
    69    64    65    1
@<TRIPOS>SUBSTRUCTURE
     1 RES1        1 GROUP             0 ****  ****    0  
@<TRIPOS>MOLECULE
LIGAND_00240
    65    69     1     0     0
SMALL
USER_CHARGES
****
Generated from the CSD

@<TRIPOS>ATOM
     1 C1       0.1294  -3.9317 -15.8289   C.ar      1 RES1   0.0000
     2 H2      -0.6368  -4.2741 -16.5161   H         1 RES1   0.0000
     3 C3       2.0622  -3.0171 -14.0798   C.ar      1 RES1   0.0000
     4 H4       2.8177  -2.6473 -13.3944   H         1 RES1   0.0000
     5 C5       0.3670  -4.6454 -14.6580   C.ar      1 RES1   0.0000
     6 C6       0.8474  -2.7888 -16.1335   C.ar      1 RES1   0.0000
     7 H7       0.6617  -2.2445 -17.0534   H         1 RES1   0.0000
     8 C8       1.7949  -2.3603 -15.2470   C.ar      1 RES1   0.0000
     9 C9       1.3471  -4.1656 -13.7938   C.ar      1 RES1   0.0000
    10 H10      1.5622  -4.7014 -12.8763   H         1 RES1   0.0000
    11 C11     -0.4052  -5.8830 -14.3127   C.2       1 RES1   0.0000
    12 F12      2.5011  -1.2339 -15.5375   F         1 RES1   0.0000
    13 N13     -1.3319  -7.9018 -14.2208   N.am      1 RES1   0.0000
    14 C14     -1.7298  -9.3328 -14.4456   C.3       1 RES1   0.0000
    15 H15     -1.2480  -9.6779 -15.3592   H         1 RES1   0.0000
    16 C16     -2.4132  -7.7610 -11.9429   C.3       1 RES1   0.0000
    17 H17     -3.0164  -7.0168 -11.4269   H         1 RES1   0.0000
    18 H18     -3.0688  -8.5720 -12.2534   H         1 RES1   0.0000
    19 H19     -1.6896  -8.1613 -11.2359   H         1 RES1   0.0000
    20 C20     -1.1594  -5.9688 -13.1688   C.2       1 RES1   0.0000
    21 C21     -1.4160  -4.9157 -12.1531   C.ar      1 RES1   0.0000
    22 O22     -0.0332  -7.5420 -16.0308   O.2       1 RES1   0.0000
    23 C23     -0.5249  -7.1342 -14.9867   C.2       1 RES1   0.0000
    24 N24     -1.7355  -7.1696 -13.0971   N.pl3     1 RES1   0.0000
    25 C25     -1.6186 -11.6678 -13.5172   C.3       1 RES1   0.0000
    26 H26     -1.3008 -12.2597 -12.6601   H         1 RES1   0.0000
    27 H27     -1.1230 -12.0342 -14.4151   H         1 RES1   0.0000
    28 C28     -3.6110 -10.9563 -14.8118   C.3       1 RES1   0.0000
    29 H29     -3.1766 -11.3138 -15.7442   H         1 RES1   0.0000
    30 H30     -4.6954 -11.0455 -14.8589   H         1 RES1   0.0000
    31 C31     -3.2383  -9.4945 -14.6156   C.3       1 RES1   0.0000
    32 H32     -3.5619  -8.9246 -15.4853   H         1 RES1   0.0000
    33 H33     -3.7396  -9.1155 -13.7262   H         1 RES1   0.0000
    34 C34     -1.2458 -10.2127 -13.2925   C.3       1 RES1   0.0000
    35 H35     -1.7033  -9.8679 -12.3664   H         1 RES1   0.0000
    36 H36     -0.1626 -10.1317 -13.2144   H         1 RES1   0.0000
    37 N37     -3.0998 -11.7877 -13.6827   N.4       1 RES1   1.0000
    38 H38     -3.5499 -11.4856 -12.8246   H         1 RES1   0.0000
    39 H39     -3.3309 -12.7597 -13.8619   H         1 RES1   0.0000
    40 N40     -1.5946  -3.6669 -12.6117   N.ar      1 RES1   0.0000
    41 C41     -1.6913  -4.1267  -9.9489   C.ar      1 RES1   0.0000
    42 H42     -1.7346  -4.3195  -8.8820   H         1 RES1   0.0000
    43 N43     -1.9592  -1.4491 -12.1568   N.pl3     1 RES1   0.0000
    44 H44     -1.8619  -1.2892 -13.1594   H         1 RES1   0.0000
    45 C45     -1.4588  -5.1926 -10.7945   C.ar      1 RES1   0.0000
    46 H46     -1.3141  -6.1984 -10.4141   H         1 RES1   0.0000
    47 C47     -1.8016  -2.7021 -11.7010   C.ar      1 RES1   0.0000
    48 N48     -1.8650  -2.8678 -10.3718   N.ar      1 RES1   0.0000
    49 C49     -2.1992  -0.2890 -11.2989   C.3       1 RES1   0.0000
    50 H50     -2.6942  -0.6293 -10.3762   H         1 RES1   0.0000
    51 C51     -3.0805   0.7496 -11.9646   C.ar      1 RES1   0.0000
    52 C52     -0.8434   0.3033 -10.9324   C.3       1 RES1   0.0000
    53 H53     -0.9615   1.1546 -10.2652   H         1 RES1   0.0000
    54 H54     -0.2203  -0.4352 -10.4323   H         1 RES1   0.0000
    55 H55     -0.3185   0.6418 -11.8232   H         1 RES1   0.0000
    56 C56     -4.6938   2.6543 -13.2015   C.ar      1 RES1   0.0000
    57 H57     -5.3227   3.3956 -13.6832   H         1 RES1   0.0000
    58 C58     -3.0179   0.9506 -13.3360   C.ar      1 RES1   0.0000
    59 H59     -2.3321   0.3592 -13.9335   H         1 RES1   0.0000
    60 C60     -3.9639   1.5213 -11.2224   C.ar      1 RES1   0.0000
    61 H61     -4.0291   1.3833 -10.1482   H         1 RES1   0.0000
    62 C62     -4.7654   2.4674 -11.8386   C.ar      1 RES1   0.0000
    63 H63     -5.4518   3.0629 -11.2458   H         1 RES1   0.0000
    64 C64     -3.8207   1.8965 -13.9506   C.ar      1 RES1   0.0000
    65 H65     -3.7617   2.0409 -15.0242   H         1 RES1   0.0000
@<TRIPOS>BOND
     1     1     5   ar
     2     1     6   ar
     3     1     2    1
     4     3     8   ar
     5     3     9   ar
     6     3     4    1
     7     5     9   ar
     8     5    11    1
     9     6     8   ar
    10     6     7    1
    11     8    12    1
    12     9    10    1
    13    11    20    2
    14    11    23    1
    15    13    14    1
    16    13    23   am
    17    13    24    1
    18    14    31    1
    19    14    34    1
    20    14    15    1
    21    16    24    1
    22    16    17    1
    23    16    18    1
    24    16    19    1
    25    20    21    1
    26    20    24    1
    27    21    40   ar
    28    21    45   ar
    29    22    23    2
    30    25    34    1
    31    25    37    1
    32    25    26    1
    33    25    27    1
    34    28    31    1
    35    28    37    1
    36    28    29    1
    37    28    30    1
    38    31    32    1
    39    31    33    1
    40    34    35    1
    41    34    36    1
    42    37    38    1
    43    37    39    1
    44    40    47   ar
    45    41    45   ar
    46    41    48   ar
    47    41    42    1
    48    43    47    1
    49    43    49    1
    50    43    44    1
    51    45    46    1
    52    47    48   ar
    53    49    51    1
    54    49    52    1
    55    49    50    1
    56    51    58   ar
    57    51    60   ar
    58    52    53    1
    59    52    54    1
    60    52    55    1
    61    56    62   ar
    62    56    64   ar
    63    56    57    1
    64    58    64   ar
    65    58    59    1
    66    60    62   ar
    67    60    61    1
    68    62    63    1
    69    64    65    1
@<TRIPOS>SUBSTRUCTURE
     1 RES1        1 GROUP             0 ****  ****    0  
@<TRIPOS>MOLECULE
LIGAND_00241
    65    69     1     0     0
SMALL
USER_CHARGES
****
Generated from the CSD

@<TRIPOS>ATOM
     1 C1       0.1301  -3.9318 -15.8287   C.ar      1 RES1   0.0000
     2 H2      -0.6360  -4.2741 -16.5159   H         1 RES1   0.0000
     3 C3       2.0628  -3.0175 -14.0792   C.ar      1 RES1   0.0000
     4 H4       2.8182  -2.6479 -13.3937   H         1 RES1   0.0000
     5 C5       0.3674  -4.6456 -14.6577   C.ar      1 RES1   0.0000
     6 C6       0.8483  -2.7890 -16.1331   C.ar      1 RES1   0.0000
     7 H7       0.6628  -2.2447 -17.0530   H         1 RES1   0.0000
     8 C8       1.7957  -2.3606 -15.2465   C.ar      1 RES1   0.0000
     9 C9       1.3475  -4.1659 -13.7934   C.ar      1 RES1   0.0000
    10 H10      1.5623  -4.7018 -12.8759   H         1 RES1   0.0000
    11 C11     -0.4051  -5.8831 -14.3126   C.2       1 RES1   0.0000
    12 F12      2.5021  -1.2343 -15.5367   F         1 RES1   0.0000
    13 N13     -1.3320  -7.9017 -14.2209   N.am      1 RES1   0.0000
    14 C14     -1.7301  -9.3326 -14.4458   C.3       1 RES1   0.0000
    15 H15     -1.2483  -9.6777 -15.3594   H         1 RES1   0.0000
    16 C16     -2.4137  -7.7609 -11.9432   C.3       1 RES1   0.0000
    17 H17     -3.0168  -7.0167 -11.4273   H         1 RES1   0.0000
    18 H18     -3.0693  -8.5718 -12.2538   H         1 RES1   0.0000
    19 H19     -1.6902  -8.1612 -11.2360   H         1 RES1   0.0000
    20 C20     -1.1594  -5.9688 -13.1688   C.2       1 RES1   0.0000
    21 C21     -1.4160  -4.9157 -12.1531   C.ar      1 RES1   0.0000
    22 O22     -0.0330  -7.5421 -16.0307   O.2       1 RES1   0.0000
    23 C23     -0.5248  -7.1342 -14.9866   C.2       1 RES1   0.0000
    24 N24     -1.7357  -7.1695 -13.0973   N.pl3     1 RES1   0.0000
    25 C25     -1.6193 -11.6678 -13.5175   C.3       1 RES1   0.0000
    26 H26     -1.3017 -12.2597 -12.6604   H         1 RES1   0.0000
    27 H27     -1.1237 -12.0341 -14.4154   H         1 RES1   0.0000
    28 C28     -3.6115 -10.9559 -14.8123   C.3       1 RES1   0.0000
    29 H29     -3.1770 -11.3134 -15.7447   H         1 RES1   0.0000
    30 H30     -4.6958 -11.0449 -14.8595   H         1 RES1   0.0000
    31 C31     -3.2386  -9.4942 -14.6159   C.3       1 RES1   0.0000
    32 H32     -3.5621  -8.9242 -15.4857   H         1 RES1   0.0000
    33 H33     -3.7399  -9.1151 -13.7266   H         1 RES1   0.0000
    34 C34     -1.2463 -10.2127 -13.2927   C.3       1 RES1   0.0000
    35 H35     -1.7039  -9.8679 -12.3666   H         1 RES1   0.0000
    36 H36     -0.1632 -10.1318 -13.2145   H         1 RES1   0.0000
    37 N37     -3.1005 -11.7875 -13.6831   N.4       1 RES1   1.0000
    38 H38     -3.5507 -11.4853 -12.8251   H         1 RES1   0.0000
    39 H39     -3.3317 -12.7594 -13.8624   H         1 RES1   0.0000
    40 N40     -1.5946  -3.6669 -12.6117   N.ar      1 RES1   0.0000
    41 C41     -1.6913  -4.1267  -9.9489   C.ar      1 RES1   0.0000
    42 H42     -1.7346  -4.3195  -8.8820   H         1 RES1   0.0000
    43 N43     -1.9592  -1.4491 -12.1568   N.pl3     1 RES1   0.0000
    44 H44     -2.1671  -0.7162 -11.4787   H         1 RES1   0.0000
    45 C45     -1.4588  -5.1926 -10.7945   C.ar      1 RES1   0.0000
    46 H46     -1.3141  -6.1984 -10.4141   H         1 RES1   0.0000
    47 C47     -1.8016  -2.7021 -11.7010   C.ar      1 RES1   0.0000
    48 N48     -1.8650  -2.8678 -10.3718   N.ar      1 RES1   0.0000
    49 C49     -1.9139  -1.0798 -13.5714   C.3       1 RES1   0.0000
    50 H50     -1.2884  -1.8108 -14.1067   H         1 RES1   0.0000
    51 C51     -1.3330   0.3036 -13.7892   C.ar      1 RES1   0.0000
    52 C52     -3.3345  -1.1646 -14.1171   C.3       1 RES1   0.0000
    53 H53     -3.3548  -0.9300 -15.1793   H         1 RES1   0.0000
    54 H54     -3.7421  -2.1644 -13.9832   H         1 RES1   0.0000
    55 H55     -3.9862  -0.4615 -13.6027   H         1 RES1   0.0000
    56 C56     -0.2717   2.8501 -14.1758   C.ar      1 RES1   0.0000
    57 H57      0.1423   3.8416 -14.3262   H         1 RES1   0.0000
    58 C58     -1.5406   1.3087 -12.8556   C.ar      1 RES1   0.0000
    59 H59     -2.1237   1.1004 -11.9647   H         1 RES1   0.0000
    60 C60     -0.5861   0.5967 -14.9219   C.ar      1 RES1   0.0000
    61 H61     -0.4119  -0.1727 -15.6668   H         1 RES1   0.0000
    62 C62     -0.0589   1.8628 -15.1126   C.ar      1 RES1   0.0000
    63 H63      0.5235   2.0772 -16.0025   H         1 RES1   0.0000
    64 C64     -1.0121   2.5739 -13.0476   C.ar      1 RES1   0.0000
    65 H65     -1.1816   3.3491 -12.3077   H         1 RES1   0.0000
@<TRIPOS>BOND
     1     1     5   ar
     2     1     6   ar
     3     1     2    1
     4     3     8   ar
     5     3     9   ar
     6     3     4    1
     7     5     9   ar
     8     5    11    1
     9     6     8   ar
    10     6     7    1
    11     8    12    1
    12     9    10    1
    13    11    20    2
    14    11    23    1
    15    13    14    1
    16    13    23   am
    17    13    24    1
    18    14    31    1
    19    14    34    1
    20    14    15    1
    21    16    24    1
    22    16    17    1
    23    16    18    1
    24    16    19    1
    25    20    21    1
    26    20    24    1
    27    21    40   ar
    28    21    45   ar
    29    22    23    2
    30    25    34    1
    31    25    37    1
    32    25    26    1
    33    25    27    1
    34    28    31    1
    35    28    37    1
    36    28    29    1
    37    28    30    1
    38    31    32    1
    39    31    33    1
    40    34    35    1
    41    34    36    1
    42    37    38    1
    43    37    39    1
    44    40    47   ar
    45    41    45   ar
    46    41    48   ar
    47    41    42    1
    48    43    47    1
    49    43    49    1
    50    43    44    1
    51    45    46    1
    52    47    48   ar
    53    49    51    1
    54    49    52    1
    55    49    50    1
    56    51    58   ar
    57    51    60   ar
    58    52    53    1
    59    52    54    1
    60    52    55    1
    61    56    62   ar
    62    56    64   ar
    63    56    57    1
    64    58    64   ar
    65    58    59    1
    66    60    62   ar
    67    60    61    1
    68    62    63    1
    69    64    65    1
@<TRIPOS>SUBSTRUCTURE
     1 RES1        1 GROUP             0 ****  ****    0  
@<TRIPOS>MOLECULE
LIGAND_00242
    65    69     1     0     0
SMALL
USER_CHARGES
****
Generated from the CSD

@<TRIPOS>ATOM
     1 C1      -1.6635  -5.2911 -10.5637   C.ar      1 RES1   0.0000
     2 H2      -1.6778  -6.3237 -10.2319   H         1 RES1   0.0000
     3 C3      -1.5988  -2.6506 -11.3731   C.ar      1 RES1   0.0000
     4 H4      -1.5678  -1.6108 -11.6816   H         1 RES1   0.0000
     5 C5      -1.3769  -5.0039 -11.8949   C.ar      1 RES1   0.0000
     6 C6      -1.9257  -4.2851  -9.6506   C.ar      1 RES1   0.0000
     7 H7      -2.1576  -4.5193  -8.6170   H         1 RES1   0.0000
     8 C8      -1.8835  -2.9888 -10.0809   C.ar      1 RES1   0.0000
     9 C9      -1.3520  -3.6661 -12.2787   C.ar      1 RES1   0.0000
    10 H10     -1.1389  -3.4078 -13.3098   H         1 RES1   0.0000
    11 C11     -1.0872  -6.0827 -12.8946   C.2       1 RES1   0.0000
    12 F12     -2.1349  -1.9940  -9.1871   F         1 RES1   0.0000
    13 N13     -1.2669  -7.9020 -14.2039   N.am      1 RES1   0.0000
    14 C14     -1.5431  -9.3598 -14.4385   C.3       1 RES1   0.0000
    15 H15     -1.1014  -9.6378 -15.3943   H         1 RES1   0.0000
    16 C16      0.6396  -7.4783 -15.6275   C.3       1 RES1   0.0000
    17 H17      1.7154  -7.6314 -15.5742   H         1 RES1   0.0000
    18 H18      0.2092  -8.2964 -16.2013   H         1 RES1   0.0000
    19 H19      0.4547  -6.5516 -16.1667   H         1 RES1   0.0000
    20 C20      0.0870  -6.2522 -13.5415   C.2       1 RES1   0.0000
    21 C21      1.3005  -5.3960 -13.5085   C.ar      1 RES1   0.0000
    22 O22     -3.0954  -7.4365 -12.8924   O.2       1 RES1   0.0000
    23 C23     -1.9735  -7.1442 -13.2851   C.2       1 RES1   0.0000
    24 N24      0.0569  -7.4210 -14.2864   N.3       1 RES1   0.0000
    25 C25     -1.1405 -11.6917 -13.5859   C.3       1 RES1   0.0000
    26 H26     -0.7039 -12.2675 -12.7712   H         1 RES1   0.0000
    27 H27     -0.6820 -11.9899 -14.5276   H         1 RES1   0.0000
    28 C28     -3.2840 -11.1499 -14.7101   C.3       1 RES1   0.0000
    29 H29     -2.8896 -11.4445 -15.6815   H         1 RES1   0.0000
    30 H30     -4.3554 -11.3425 -14.6798   H         1 RES1   0.0000
    31 C31     -3.0380  -9.6633 -14.5014   C.3       1 RES1   0.0000
    32 H32     -3.4792  -9.1096 -15.3288   H         1 RES1   0.0000
    33 H33     -3.5040  -9.3528 -13.5674   H         1 RES1   0.0000
    34 C34     -0.8916 -10.2123 -13.3489   C.3       1 RES1   0.0000
    35 H35     -1.3081  -9.9325 -12.3825   H         1 RES1   0.0000
    36 H36      0.1818 -10.0285 -13.3486   H         1 RES1   0.0000
    37 N37     -2.6119 -11.9510 -13.6452   N.4       1 RES1   1.0000
    38 H38     -3.0222 -11.7115 -12.7482   H         1 RES1   0.0000
    39 H39     -2.7626 -12.9368 -13.8338   H         1 RES1   0.0000
    40 N40      2.4085  -5.9412 -12.9825   N.ar      1 RES1   0.0000
    41 C41      2.4854  -3.3930 -13.8838   C.ar      1 RES1   0.0000
    42 H42      2.5106  -2.3730 -14.2528   H         1 RES1   0.0000
    43 N43      4.6079  -5.7049 -12.3784   N.pl3     1 RES1   0.0000
    44 H44      5.4631  -5.1490 -12.3837   H         1 RES1   0.0000
    45 C45      1.2993  -4.0922 -13.9822   C.ar      1 RES1   0.0000
    46 H46      0.4084  -3.6422 -14.4076   H         1 RES1   0.0000
    47 C47      3.5047  -5.1680 -12.9236   C.ar      1 RES1   0.0000
    48 N48      3.6063  -3.9031 -13.3572   N.ar      1 RES1   0.0000
    49 C49      4.6765  -7.0608 -11.8339   C.3       1 RES1   0.0000
    50 H50      4.4556  -7.7763 -12.6411   H         1 RES1   0.0000
    51 C51      3.6857  -7.2823 -10.7080   C.ar      1 RES1   0.0000
    52 C52      6.1044  -7.2950 -11.3550   C.3       1 RES1   0.0000
    53 H53      6.2211  -8.3051 -10.9678   H         1 RES1   0.0000
    54 H54      6.8133  -7.1604 -12.1693   H         1 RES1   0.0000
    55 H55      6.3630  -6.5966 -10.5619   H         1 RES1   0.0000
    56 C56      1.8660  -7.6742  -8.6354   C.ar      1 RES1   0.0000
    57 H57      1.1567  -7.8268  -7.8287   H         1 RES1   0.0000
    58 C58      3.3044  -6.2291  -9.8891   C.ar      1 RES1   0.0000
    59 H59      3.7204  -5.2414 -10.0579   H         1 RES1   0.0000
    60 C60      3.1413  -8.5367 -10.4693   C.ar      1 RES1   0.0000
    61 H61      3.4258  -9.3759 -11.0954   H         1 RES1   0.0000
    62 C62      2.2367  -8.7299  -9.4389   C.ar      1 RES1   0.0000
    63 H63      1.8189  -9.7159  -9.2645   H         1 RES1   0.0000
    64 C64      2.3991  -6.4240  -8.8599   C.ar      1 RES1   0.0000
    65 H65      2.1093  -5.5903  -8.2291   H         1 RES1   0.0000
@<TRIPOS>BOND
     1     1     5   ar
     2     1     6   ar
     3     1     2    1
     4     3     8   ar
     5     3     9   ar
     6     3     4    1
     7     5     9   ar
     8     5    11    1
     9     6     8   ar
    10     6     7    1
    11     8    12    1
    12     9    10    1
    13    11    20    2
    14    11    23    1
    15    13    14    1
    16    13    23   am
    17    13    24    1
    18    14    31    1
    19    14    34    1
    20    14    15    1
    21    16    24    1
    22    16    17    1
    23    16    18    1
    24    16    19    1
    25    20    21    1
    26    20    24    1
    27    21    40   ar
    28    21    45   ar
    29    22    23    2
    30    25    34    1
    31    25    37    1
    32    25    26    1
    33    25    27    1
    34    28    31    1
    35    28    37    1
    36    28    29    1
    37    28    30    1
    38    31    32    1
    39    31    33    1
    40    34    35    1
    41    34    36    1
    42    37    38    1
    43    37    39    1
    44    40    47   ar
    45    41    45   ar
    46    41    48   ar
    47    41    42    1
    48    43    47    1
    49    43    49    1
    50    43    44    1
    51    45    46    1
    52    47    48   ar
    53    49    51    1
    54    49    52    1
    55    49    50    1
    56    51    58   ar
    57    51    60   ar
    58    52    53    1
    59    52    54    1
    60    52    55    1
    61    56    62   ar
    62    56    64   ar
    63    56    57    1
    64    58    64   ar
    65    58    59    1
    66    60    62   ar
    67    60    61    1
    68    62    63    1
    69    64    65    1
@<TRIPOS>SUBSTRUCTURE
     1 RES1        1 GROUP             0 ****  ****    0  
@<TRIPOS>MOLECULE
LIGAND_00243
    65    69     1     0     0
SMALL
USER_CHARGES
****
Generated from the CSD

@<TRIPOS>ATOM
     1 C1      -0.9004  -4.6130 -10.9182   C.ar      1 RES1   0.0000
     2 H2      -0.1575  -5.3119 -10.5495   H         1 RES1   0.0000
     3 C3      -2.7635  -2.7977 -11.8486   C.ar      1 RES1   0.0000
     4 H4      -3.4887  -2.0763 -12.2103   H         1 RES1   0.0000
     5 C5      -1.4903  -4.8329 -12.1594   C.ar      1 RES1   0.0000
     6 C6      -1.2378  -3.5162 -10.1451   C.ar      1 RES1   0.0000
     7 H7      -0.7796  -3.3584  -9.1745   H         1 RES1   0.0000
     8 C8      -2.1607  -2.6350 -10.6339   C.ar      1 RES1   0.0000
     9 C9      -2.4275  -3.9052 -12.6053   C.ar      1 RES1   0.0000
    10 H10     -2.9111  -4.0502 -13.5646   H         1 RES1   0.0000
    11 C11     -1.1323  -6.0144 -13.0098   C.2       1 RES1   0.0000
    12 F12     -2.4934  -1.5511  -9.8813   F         1 RES1   0.0000
    13 N13     -1.2237  -7.9663 -14.1224   N.am      1 RES1   0.0000
    14 C14     -1.4916  -9.4414 -14.2169   C.3       1 RES1   0.0000
    15 H15     -0.9796  -9.8219 -15.0995   H         1 RES1   0.0000
    16 C16      0.7897  -7.6986 -15.4320   C.3       1 RES1   0.0000
    17 H17      1.8572  -7.8437 -15.2792   H         1 RES1   0.0000
    18 H18      0.3989  -8.5752 -15.9445   H         1 RES1   0.0000
    19 H19      0.6537  -6.8368 -16.0819   H         1 RES1   0.0000
    20 C20      0.0870  -6.2522 -13.5415   C.2       1 RES1   0.0000
    21 C21      1.3005  -5.3960 -13.5085   C.ar      1 RES1   0.0000
    22 O22     -3.1444  -7.3623 -13.0150   O.2       1 RES1   0.0000
    23 C23     -1.9935  -7.1133 -13.3493   C.2       1 RES1   0.0000
    24 N24      0.1059  -7.4956 -14.1543   N.3       1 RES1   0.0000
    25 C25     -1.1727 -11.6654 -13.0860   C.3       1 RES1   0.0000
    26 H26     -0.8042 -12.1480 -12.1819   H         1 RES1   0.0000
    27 H27     -0.6452 -12.0643 -13.9512   H         1 RES1   0.0000
    28 C28     -3.2192 -11.2527 -14.4251   C.3       1 RES1   0.0000
    29 H29     -2.7533 -11.6514 -15.3250   H         1 RES1   0.0000
    30 H30     -4.2912 -11.4422 -14.4568   H         1 RES1   0.0000
    31 C31     -2.9793  -9.7518 -14.3616   C.3       1 RES1   0.0000
    32 H32     -3.3515  -9.2926 -15.2762   H         1 RES1   0.0000
    33 H33     -3.5136  -9.3416 -13.5060   H         1 RES1   0.0000
    34 C34     -0.9320 -10.1687 -12.9936   C.3       1 RES1   0.0000
    35 H35     -1.4198  -9.7852 -12.0986   H         1 RES1   0.0000
    36 H36      0.1394  -9.9845 -12.9303   H         1 RES1   0.0000
    37 N37     -2.6370 -11.9314 -13.2302   N.4       1 RES1   1.0000
    38 H38     -3.1134 -11.5957 -12.3992   H         1 RES1   0.0000
    39 H39     -2.7798 -12.9322 -13.3210   H         1 RES1   0.0000
    40 N40      1.7579  -4.9532 -14.6902   N.ar      1 RES1   0.0000
    41 C41      3.0726  -4.2815 -12.4248   C.ar      1 RES1   0.0000
    42 H42      3.5916  -4.0110 -11.5112   H         1 RES1   0.0000
    43 N43      3.3401  -3.7737 -15.8580   N.pl3     1 RES1   0.0000
    44 H44      2.8692  -4.0949 -16.7038   H         1 RES1   0.0000
    45 C45      1.9462  -5.0730 -12.3240   C.ar      1 RES1   0.0000
    46 H46      1.5851  -5.4274 -11.3642   H         1 RES1   0.0000
    47 C47      2.8692  -4.1997 -14.6750   C.ar      1 RES1   0.0000
    48 N48      3.5608  -3.8298 -13.5873   N.ar      1 RES1   0.0000
    49 C49      4.5241  -2.9289 -16.0127   C.3       1 RES1   0.0000
    50 H50      5.3947  -3.4636 -15.6023   H         1 RES1   0.0000
    51 C51      4.3868  -1.6035 -15.2895   C.ar      1 RES1   0.0000
    52 C52      4.7462  -2.7130 -17.5051   C.3       1 RES1   0.0000
    53 H53      5.6378  -2.1146 -17.6803   H         1 RES1   0.0000
    54 H54      4.8696  -3.6635 -18.0200   H         1 RES1   0.0000
    55 H55      3.8985  -2.1951 -17.9487   H         1 RES1   0.0000
    56 C56      4.1193   0.8314 -13.9628   C.ar      1 RES1   0.0000
    57 H57      4.0151   1.7793 -13.4454   H         1 RES1   0.0000
    58 C58      3.1397  -1.0187 -15.1232   C.ar      1 RES1   0.0000
    59 H59      2.2583  -1.5155 -15.5151   H         1 RES1   0.0000
    60 C60      5.4989  -0.9461 -14.7816   C.ar      1 RES1   0.0000
    61 H61      6.4847  -1.3831 -14.9010   H         1 RES1   0.0000
    62 C62      5.3644   0.2640 -14.1220   C.ar      1 RES1   0.0000
    63 H63      6.2424   0.7661 -13.7297   H         1 RES1   0.0000
    64 C64      3.0070   0.1909 -14.4628   C.ar      1 RES1   0.0000
    65 H65      2.0248   0.6349 -14.3391   H         1 RES1   0.0000
@<TRIPOS>BOND
     1     1     5   ar
     2     1     6   ar
     3     1     2    1
     4     3     8   ar
     5     3     9   ar
     6     3     4    1
     7     5     9   ar
     8     5    11    1
     9     6     8   ar
    10     6     7    1
    11     8    12    1
    12     9    10    1
    13    11    20    2
    14    11    23    1
    15    13    14    1
    16    13    23   am
    17    13    24    1
    18    14    31    1
    19    14    34    1
    20    14    15    1
    21    16    24    1
    22    16    17    1
    23    16    18    1
    24    16    19    1
    25    20    21    1
    26    20    24    1
    27    21    40   ar
    28    21    45   ar
    29    22    23    2
    30    25    34    1
    31    25    37    1
    32    25    26    1
    33    25    27    1
    34    28    31    1
    35    28    37    1
    36    28    29    1
    37    28    30    1
    38    31    32    1
    39    31    33    1
    40    34    35    1
    41    34    36    1
    42    37    38    1
    43    37    39    1
    44    40    47   ar
    45    41    45   ar
    46    41    48   ar
    47    41    42    1
    48    43    47    1
    49    43    49    1
    50    43    44    1
    51    45    46    1
    52    47    48   ar
    53    49    51    1
    54    49    52    1
    55    49    50    1
    56    51    58   ar
    57    51    60   ar
    58    52    53    1
    59    52    54    1
    60    52    55    1
    61    56    62   ar
    62    56    64   ar
    63    56    57    1
    64    58    64   ar
    65    58    59    1
    66    60    62   ar
    67    60    61    1
    68    62    63    1
    69    64    65    1
@<TRIPOS>SUBSTRUCTURE
     1 RES1        1 GROUP             0 ****  ****    0  
@<TRIPOS>MOLECULE
LIGAND_00244
    65    69     1     0     0
SMALL
USER_CHARGES
****
Generated from the CSD

@<TRIPOS>ATOM
     1 C1      -1.6635  -5.2910 -10.5637   C.ar      1 RES1   0.0000
     2 H2      -1.6778  -6.3236 -10.2320   H         1 RES1   0.0000
     3 C3      -1.5989  -2.6505 -11.3733   C.ar      1 RES1   0.0000
     4 H4      -1.5680  -1.6108 -11.6818   H         1 RES1   0.0000
     5 C5      -1.3769  -5.0039 -11.8950   C.ar      1 RES1   0.0000
     6 C6      -1.9257  -4.2850  -9.6507   C.ar      1 RES1   0.0000
     7 H7      -2.1576  -4.5191  -8.6171   H         1 RES1   0.0000
     8 C8      -1.8836  -2.9887 -10.0811   C.ar      1 RES1   0.0000
     9 C9      -1.3522  -3.6660 -12.2789   C.ar      1 RES1   0.0000
    10 H10     -1.1391  -3.4078 -13.3099   H         1 RES1   0.0000
    11 C11     -1.0872  -6.0827 -12.8947   C.2       1 RES1   0.0000
    12 F12     -2.1350  -1.9938  -9.1873   F         1 RES1   0.0000
    13 N13     -1.2669  -7.9020 -14.2039   N.am      1 RES1   0.0000
    14 C14     -1.5431  -9.3598 -14.4384   C.3       1 RES1   0.0000
    15 H15     -1.1013  -9.6379 -15.3942   H         1 RES1   0.0000
    16 C16      0.6396  -7.4783 -15.6274   C.3       1 RES1   0.0000
    17 H17      1.7155  -7.6315 -15.5741   H         1 RES1   0.0000
    18 H18      0.2092  -8.2965 -16.2012   H         1 RES1   0.0000
    19 H19      0.4548  -6.5516 -16.1666   H         1 RES1   0.0000
    20 C20      0.0870  -6.2522 -13.5415   C.2       1 RES1   0.0000
    21 C21      1.3005  -5.3960 -13.5085   C.ar      1 RES1   0.0000
    22 O22     -3.0954  -7.4365 -12.8924   O.2       1 RES1   0.0000
    23 C23     -1.9735  -7.1442 -13.2851   C.2       1 RES1   0.0000
    24 N24      0.0569  -7.4211 -14.2864   N.3       1 RES1   0.0000
    25 C25     -1.1406 -11.6917 -13.5857   C.3       1 RES1   0.0000
    26 H26     -0.7040 -12.2675 -12.7709   H         1 RES1   0.0000
    27 H27     -0.6820 -11.9899 -14.5273   H         1 RES1   0.0000
    28 C28     -3.2840 -11.1499 -14.7101   C.3       1 RES1   0.0000
    29 H29     -2.8895 -11.4445 -15.6815   H         1 RES1   0.0000
    30 H30     -4.3554 -11.3425 -14.6799   H         1 RES1   0.0000
    31 C31     -3.0379  -9.6633 -14.5014   C.3       1 RES1   0.0000
    32 H32     -3.4792  -9.1096 -15.3289   H         1 RES1   0.0000
    33 H33     -3.5040  -9.3528 -13.5674   H         1 RES1   0.0000
    34 C34     -0.8916 -10.2123 -13.3488   C.3       1 RES1   0.0000
    35 H35     -1.3083  -9.9324 -12.3824   H         1 RES1   0.0000
    36 H36      0.1817 -10.0285 -13.3483   H         1 RES1   0.0000
    37 N37     -2.6120 -11.9510 -13.6451   N.4       1 RES1   1.0000
    38 H38     -3.0224 -11.7114 -12.7482   H         1 RES1   0.0000
    39 H39     -2.7627 -12.9368 -13.8336   H         1 RES1   0.0000
    40 N40      2.4085  -5.9412 -12.9825   N.ar      1 RES1   0.0000
    41 C41      2.4854  -3.3930 -13.8838   C.ar      1 RES1   0.0000
    42 H42      2.5106  -2.3730 -14.2528   H         1 RES1   0.0000
    43 N43      4.6079  -5.7049 -12.3784   N.pl3     1 RES1   0.0000
    44 H44      4.5382  -6.6426 -11.9831   H         1 RES1   0.0000
    45 C45      1.2993  -4.0922 -13.9822   C.ar      1 RES1   0.0000
    46 H46      0.4084  -3.6422 -14.4076   H         1 RES1   0.0000
    47 C47      3.5047  -5.1680 -12.9236   C.ar      1 RES1   0.0000
    48 N48      3.6063  -3.9031 -13.3572   N.ar      1 RES1   0.0000
    49 C49      5.8869  -5.0053 -12.2591   C.3       1 RES1   0.0000
    50 H50      5.7415  -4.1084 -11.6372   H         1 RES1   0.0000
    51 C51      6.4383  -4.5755 -13.6044   C.ar      1 RES1   0.0000
    52 C52      6.8593  -5.9378 -11.5462   C.3       1 RES1   0.0000
    53 H53      7.8227  -5.4536 -11.4011   H         1 RES1   0.0000
    54 H54      6.4747  -6.2262 -10.5702   H         1 RES1   0.0000
    55 H55      7.0198  -6.8431 -12.1280   H         1 RES1   0.0000
    56 C56      7.4442  -3.7980 -16.0830   C.ar      1 RES1   0.0000
    57 H57      7.8355  -3.4946 -17.0484   H         1 RES1   0.0000
    58 C58      6.1593  -5.3119 -14.7467   C.ar      1 RES1   0.0000
    59 H59      5.5423  -6.2014 -14.6735   H         1 RES1   0.0000
    60 C60      7.2325  -3.4434 -13.7245   C.ar      1 RES1   0.0000
    61 H61      7.4657  -2.8527 -12.8448   H         1 RES1   0.0000
    62 C62      7.7315  -3.0579 -14.9572   C.ar      1 RES1   0.0000
    63 H63      8.3504  -2.1704 -15.0361   H         1 RES1   0.0000
    64 C64      6.6585  -4.9245 -15.9786   C.ar      1 RES1   0.0000
    65 H65      6.4301  -5.5096 -16.8632   H         1 RES1   0.0000
@<TRIPOS>BOND
     1     1     5   ar
     2     1     6   ar
     3     1     2    1
     4     3     8   ar
     5     3     9   ar
     6     3     4    1
     7     5     9   ar
     8     5    11    1
     9     6     8   ar
    10     6     7    1
    11     8    12    1
    12     9    10    1
    13    11    20    2
    14    11    23    1
    15    13    14    1
    16    13    23   am
    17    13    24    1
    18    14    31    1
    19    14    34    1
    20    14    15    1
    21    16    24    1
    22    16    17    1
    23    16    18    1
    24    16    19    1
    25    20    21    1
    26    20    24    1
    27    21    40   ar
    28    21    45   ar
    29    22    23    2
    30    25    34    1
    31    25    37    1
    32    25    26    1
    33    25    27    1
    34    28    31    1
    35    28    37    1
    36    28    29    1
    37    28    30    1
    38    31    32    1
    39    31    33    1
    40    34    35    1
    41    34    36    1
    42    37    38    1
    43    37    39    1
    44    40    47   ar
    45    41    45   ar
    46    41    48   ar
    47    41    42    1
    48    43    47    1
    49    43    49    1
    50    43    44    1
    51    45    46    1
    52    47    48   ar
    53    49    51    1
    54    49    52    1
    55    49    50    1
    56    51    58   ar
    57    51    60   ar
    58    52    53    1
    59    52    54    1
    60    52    55    1
    61    56    62   ar
    62    56    64   ar
    63    56    57    1
    64    58    64   ar
    65    58    59    1
    66    60    62   ar
    67    60    61    1
    68    62    63    1
    69    64    65    1
@<TRIPOS>SUBSTRUCTURE
     1 RES1        1 GROUP             0 ****  ****    0  
@<TRIPOS>MOLECULE
LIGAND_00245
    65    69     1     0     0
SMALL
USER_CHARGES
****
Generated from the CSD

@<TRIPOS>ATOM
     1 C1      -3.0724  -3.8328 -15.3608   C.ar      1 RES1   0.0000
     2 H2      -3.8944  -4.2508 -14.7897   H         1 RES1   0.0000
     3 C3      -0.9857  -2.7274 -16.7945   C.ar      1 RES1   0.0000
     4 H4      -0.1690  -2.2830 -17.3536   H         1 RES1   0.0000
     5 C5      -1.8487  -4.4952 -15.3839   C.ar      1 RES1   0.0000
     6 C6      -3.2621  -2.6468 -16.0477   C.ar      1 RES1   0.0000
     7 H7      -4.2226  -2.1427 -16.0317   H         1 RES1   0.0000
     8 C8      -2.2100  -2.1239 -16.7455   C.ar      1 RES1   0.0000
     9 C9      -0.8134  -3.9192 -16.1148   C.ar      1 RES1   0.0000
    10 H10      0.1508  -4.4127 -16.1594   H         1 RES1   0.0000
    11 C11     -1.6271  -5.7786 -14.6417   C.2       1 RES1   0.0000
    12 F12     -2.3876  -0.9548 -17.4190   F         1 RES1   0.0000
    13 N13     -1.2273  -7.9377 -14.1568   N.am      1 RES1   0.0000
    14 C14     -1.4820  -9.4110 -14.3016   C.3       1 RES1   0.0000
    15 H15     -1.1965  -9.7057 -15.3103   H         1 RES1   0.0000
    16 C16     -0.8623  -7.6841 -11.7813   C.3       1 RES1   0.0000
    17 H17     -1.4299  -8.4049 -11.1964   H         1 RES1   0.0000
    18 H18      0.0842  -8.1436 -12.0589   H         1 RES1   0.0000
    19 H19     -0.6498  -6.8252 -11.1483   H         1 RES1   0.0000
    20 C20     -1.7513  -5.9390 -13.3057   C.2       1 RES1   0.0000
    21 C21     -2.0254  -4.9138 -12.2663   C.ar      1 RES1   0.0000
    22 O22     -1.1933  -7.3976 -16.3901   O.2       1 RES1   0.0000
    23 C23     -1.3107  -7.0551 -15.2207   C.2       1 RES1   0.0000
    24 N24     -1.6110  -7.2769 -12.9708   N.3       1 RES1   0.0000
    25 C25     -0.8516 -11.6982 -13.4661   C.3       1 RES1   0.0000
    26 H26     -0.2623 -12.2314 -12.7215   H         1 RES1   0.0000
    27 H27     -0.5464 -12.0120 -14.4632   H         1 RES1   0.0000
    28 C28     -3.1728 -11.2669 -14.2263   C.3       1 RES1   0.0000
    29 H29     -2.9359 -11.5803 -15.2420   H         1 RES1   0.0000
    30 H30     -4.2156 -11.4945 -14.0101   H         1 RES1   0.0000
    31 C31     -2.9532  -9.7667 -14.1027   C.3       1 RES1   0.0000
    32 H32     -3.5484  -9.2562 -14.8584   H         1 RES1   0.0000
    33 H33     -3.2676  -9.4412 -13.1122   H         1 RES1   0.0000
    34 C34     -0.6241 -10.2042 -13.3150   C.3       1 RES1   0.0000
    35 H35     -0.8832  -9.9064 -12.3000   H         1 RES1   0.0000
    36 H36      0.4261  -9.9843 -13.5010   H         1 RES1   0.0000
    37 N37     -2.3008 -12.0088 -13.2688   N.4       1 RES1   1.0000
    38 H38     -2.5638 -11.7535 -12.3223   H         1 RES1   0.0000
    39 H39     -2.4425 -13.0050 -13.4023   H         1 RES1   0.0000
    40 N40     -2.7110  -5.3194 -11.1860   N.ar      1 RES1   0.0000
    41 C41     -1.9384  -2.7348 -11.3712   C.ar      1 RES1   0.0000
    42 H42     -1.6199  -1.7005 -11.4495   H         1 RES1   0.0000
    43 N43     -3.6913  -4.7948  -9.1804   N.pl3     1 RES1   0.0000
    44 H44     -4.0170  -5.7610  -9.1553   H         1 RES1   0.0000
    45 C45     -1.6108  -3.5967 -12.3985   C.ar      1 RES1   0.0000
    46 H46     -1.0576  -3.2589 -13.2686   H         1 RES1   0.0000
    47 C47     -2.9872  -4.3954 -10.2516   C.ar      1 RES1   0.0000
    48 N48     -2.6281  -3.1038 -10.2841   N.ar      1 RES1   0.0000
    49 C49     -4.0747  -3.9146  -8.0769   C.3       1 RES1   0.0000
    50 H50     -4.2456  -2.9028  -8.4761   H         1 RES1   0.0000
    51 C51     -3.0074  -3.8357  -7.0030   C.ar      1 RES1   0.0000
    52 C52     -5.3859  -4.4377  -7.5023   C.3       1 RES1   0.0000
    53 H53     -5.6354  -3.9218  -6.5774   H         1 RES1   0.0000
    54 H54     -6.2036  -4.2886  -8.2044   H         1 RES1   0.0000
    55 H55     -5.3138  -5.5018  -7.2874   H         1 RES1   0.0000
    56 C56     -1.0526  -3.7031  -5.0227   C.ar      1 RES1   0.0000
    57 H57     -0.2907  -3.6518  -4.2519   H         1 RES1   0.0000
    58 C58     -3.0006  -4.7394  -5.9502   C.ar      1 RES1   0.0000
    59 H59     -3.7661  -5.5065  -5.8976   H         1 RES1   0.0000
    60 C60     -2.0189  -2.8621  -7.0457   C.ar      1 RES1   0.0000
    61 H61     -2.0048  -2.1434  -7.8583   H         1 RES1   0.0000
    62 C62     -1.0476  -2.7976  -6.0608   C.ar      1 RES1   0.0000
    63 H63     -0.2808  -2.0316  -6.1075   H         1 RES1   0.0000
    64 C64     -2.0283  -4.6739  -4.9668   C.ar      1 RES1   0.0000
    65 H65     -2.0351  -5.3887  -4.1507   H         1 RES1   0.0000
@<TRIPOS>BOND
     1     1     5   ar
     2     1     6   ar
     3     1     2    1
     4     3     8   ar
     5     3     9   ar
     6     3     4    1
     7     5     9   ar
     8     5    11    1
     9     6     8   ar
    10     6     7    1
    11     8    12    1
    12     9    10    1
    13    11    20    2
    14    11    23    1
    15    13    14    1
    16    13    23   am
    17    13    24    1
    18    14    31    1
    19    14    34    1
    20    14    15    1
    21    16    24    1
    22    16    17    1
    23    16    18    1
    24    16    19    1
    25    20    21    1
    26    20    24    1
    27    21    40   ar
    28    21    45   ar
    29    22    23    2
    30    25    34    1
    31    25    37    1
    32    25    26    1
    33    25    27    1
    34    28    31    1
    35    28    37    1
    36    28    29    1
    37    28    30    1
    38    31    32    1
    39    31    33    1
    40    34    35    1
    41    34    36    1
    42    37    38    1
    43    37    39    1
    44    40    47   ar
    45    41    45   ar
    46    41    48   ar
    47    41    42    1
    48    43    47    1
    49    43    49    1
    50    43    44    1
    51    45    46    1
    52    47    48   ar
    53    49    51    1
    54    49    52    1
    55    49    50    1
    56    51    58   ar
    57    51    60   ar
    58    52    53    1
    59    52    54    1
    60    52    55    1
    61    56    62   ar
    62    56    64   ar
    63    56    57    1
    64    58    64   ar
    65    58    59    1
    66    60    62   ar
    67    60    61    1
    68    62    63    1
    69    64    65    1
@<TRIPOS>SUBSTRUCTURE
     1 RES1        1 GROUP             0 ****  ****    0  
@<TRIPOS>MOLECULE
LIGAND_00246
    65    69     1     0     0
SMALL
USER_CHARGES
****
Generated from the CSD

@<TRIPOS>ATOM
     1 C1      -1.1702  -3.4197 -15.0825   C.ar      1 RES1   0.0000
     2 H2      -2.1957  -3.5542 -14.7558   H         1 RES1   0.0000
     3 C3       1.4446  -3.0388 -15.8886   C.ar      1 RES1   0.0000
     4 H4       2.4715  -2.8791 -16.2001   H         1 RES1   0.0000
     5 C5      -0.2773  -4.4831 -14.9891   C.ar      1 RES1   0.0000
     6 C6      -0.7756  -2.1899 -15.5790   C.ar      1 RES1   0.0000
     7 H7      -1.4814  -1.3697 -15.6570   H         1 RES1   0.0000
     8 C8       0.5250  -2.0321 -15.9671   C.ar      1 RES1   0.0000
     9 C9       1.0340  -4.2669 -15.4033   C.ar      1 RES1   0.0000
    10 H10      1.7535  -5.0760 -15.3504   H         1 RES1   0.0000
    11 C11     -0.6890  -5.8198 -14.4499   C.2       1 RES1   0.0000
    12 F12      0.9215  -0.8237 -16.4513   F         1 RES1   0.0000
    13 N13     -1.1383  -7.9692 -14.1020   N.am      1 RES1   0.0000
    14 C14     -1.2683  -9.4629 -14.1940   C.3       1 RES1   0.0000
    15 H15     -0.9097  -9.7735 -15.1743   H         1 RES1   0.0000
    16 C16     -1.7373  -7.8785 -11.6503   C.3       1 RES1   0.0000
    17 H17     -2.3110  -7.2068 -11.0151   H         1 RES1   0.0000
    18 H18     -2.3139  -8.7912 -11.7857   H         1 RES1   0.0000
    19 H19     -0.8159  -8.1331 -11.1307   H         1 RES1   0.0000
    20 C20     -1.1594  -5.9688 -13.1688   C.2       1 RES1   0.0000
    21 C21     -1.4160  -4.9157 -12.1531   C.ar      1 RES1   0.0000
    22 O22     -0.3397  -7.4938 -16.1583   O.2       1 RES1   0.0000
    23 C23     -0.6816  -7.1157 -15.0455   C.2       1 RES1   0.0000
    24 N24     -1.4470  -7.2509 -12.9399   N.pl3     1 RES1   0.0000
    25 C25     -0.5023 -11.6565 -13.2305   C.3       1 RES1   0.0000
    26 H26      0.0888 -12.1102 -12.4363   H         1 RES1   0.0000
    27 H27     -0.1232 -11.9840 -14.1974   H         1 RES1   0.0000
    28 C28     -2.8089 -11.4452 -14.1178   C.3       1 RES1   0.0000
    29 H29     -2.4969 -11.7786 -15.1064   H         1 RES1   0.0000
    30 H30     -3.8400 -11.7478 -13.9414   H         1 RES1   0.0000
    31 C31     -2.7150  -9.9284 -14.0496   C.3       1 RES1   0.0000
    32 H32     -3.3096  -9.4983 -14.8542   H         1 RES1   0.0000
    33 H33     -3.1038  -9.5903 -13.0902   H         1 RES1   0.0000
    34 C34     -0.4015 -10.1441 -13.1343   C.3       1 RES1   0.0000
    35 H35     -0.7343  -9.8282 -12.1467   H         1 RES1   0.0000
    36 H36      0.6361  -9.8474 -13.2798   H         1 RES1   0.0000
    37 N37     -1.9306 -12.0754 -13.0886   N.4       1 RES1   1.0000
    38 H38     -2.2605 -11.8048 -12.1676   H         1 RES1   0.0000
    39 H39     -1.9864 -13.0843 -13.1850   H         1 RES1   0.0000
    40 N40     -2.5040  -5.0736 -11.3829   N.ar      1 RES1   0.0000
    41 C41     -0.9401  -2.8952 -11.0360   C.ar      1 RES1   0.0000
    42 H42     -0.3048  -2.0264 -10.8983   H         1 RES1   0.0000
    43 N43     -3.8600  -4.2605  -9.7221   N.pl3     1 RES1   0.0000
    44 H44     -4.0302  -3.5729  -8.9882   H         1 RES1   0.0000
    45 C45     -0.5883  -3.8123 -12.0057   C.ar      1 RES1   0.0000
    46 H46      0.2923  -3.6750 -12.6245   H         1 RES1   0.0000
    47 C47     -2.7605  -4.1147 -10.4787   C.ar      1 RES1   0.0000
    48 N48     -2.0225  -3.0172 -10.2566   N.ar      1 RES1   0.0000
    49 C49     -4.7957  -5.3783  -9.8428   C.3       1 RES1   0.0000
    50 H50     -4.2408  -6.2675 -10.1801   H         1 RES1   0.0000
    51 C51     -5.9067  -5.0974 -10.8354   C.ar      1 RES1   0.0000
    52 C52     -5.3636  -5.6576  -8.4562   C.3       1 RES1   0.0000
    53 H53     -6.0450  -6.5054  -8.4816   H         1 RES1   0.0000
    54 H54     -4.5677  -5.8837  -7.7497   H         1 RES1   0.0000
    55 H55     -5.9114  -4.7942  -8.0844   H         1 RES1   0.0000
    56 C56     -7.9587  -4.5829 -12.6478   C.ar      1 RES1   0.0000
    57 H57     -8.7578  -4.3818 -13.3536   H         1 RES1   0.0000
    58 C58     -7.2326  -5.1008 -10.4267   C.ar      1 RES1   0.0000
    59 H59     -7.4729  -5.3068  -9.3889   H         1 RES1   0.0000
    60 C60     -5.6261  -4.8341 -12.1691   C.ar      1 RES1   0.0000
    61 H61     -4.5969  -4.8278 -12.5124   H         1 RES1   0.0000
    62 C62     -6.6471  -4.5782 -13.0688   C.ar      1 RES1   0.0000
    63 H63     -6.4128  -4.3733 -14.1081   H         1 RES1   0.0000
    64 C64     -8.2521  -4.8440 -11.3275   C.ar      1 RES1   0.0000
    65 H65     -9.2840  -4.8484 -10.9925   H         1 RES1   0.0000
@<TRIPOS>BOND
     1     1     5   ar
     2     1     6   ar
     3     1     2    1
     4     3     8   ar
     5     3     9   ar
     6     3     4    1
     7     5     9   ar
     8     5    11    1
     9     6     8   ar
    10     6     7    1
    11     8    12    1
    12     9    10    1
    13    11    20    2
    14    11    23    1
    15    13    14    1
    16    13    23   am
    17    13    24    1
    18    14    31    1
    19    14    34    1
    20    14    15    1
    21    16    24    1
    22    16    17    1
    23    16    18    1
    24    16    19    1
    25    20    21    1
    26    20    24    1
    27    21    40   ar
    28    21    45   ar
    29    22    23    2
    30    25    34    1
    31    25    37    1
    32    25    26    1
    33    25    27    1
    34    28    31    1
    35    28    37    1
    36    28    29    1
    37    28    30    1
    38    31    32    1
    39    31    33    1
    40    34    35    1
    41    34    36    1
    42    37    38    1
    43    37    39    1
    44    40    47   ar
    45    41    45   ar
    46    41    48   ar
    47    41    42    1
    48    43    47    1
    49    43    49    1
    50    43    44    1
    51    45    46    1
    52    47    48   ar
    53    49    51    1
    54    49    52    1
    55    49    50    1
    56    51    58   ar
    57    51    60   ar
    58    52    53    1
    59    52    54    1
    60    52    55    1
    61    56    62   ar
    62    56    64   ar
    63    56    57    1
    64    58    64   ar
    65    58    59    1
    66    60    62   ar
    67    60    61    1
    68    62    63    1
    69    64    65    1
@<TRIPOS>SUBSTRUCTURE
     1 RES1        1 GROUP             0 ****  ****    0  
@<TRIPOS>MOLECULE
LIGAND_00247
    65    69     1     0     0
SMALL
USER_CHARGES
****
Generated from the CSD

@<TRIPOS>ATOM
     1 C1      -0.7027  -3.3903 -14.9781   C.ar      1 RES1   0.0000
     2 H2      -1.7635  -3.4211 -14.7543   H         1 RES1   0.0000
     3 C3       2.0037  -3.2747 -15.5205   C.ar      1 RES1   0.0000
     4 H4       3.0672  -3.2194 -15.7282   H         1 RES1   0.0000
     5 C5       0.0599  -4.5461 -14.8386   C.ar      1 RES1   0.0000
     6 C6      -0.1343  -2.1985 -15.3916   C.ar      1 RES1   0.0000
     7 H7      -0.7388  -1.3050 -15.5067   H         1 RES1   0.0000
     8 C8       1.2073  -2.1727 -15.6497   C.ar      1 RES1   0.0000
     9 C9       1.4207  -4.4628 -15.1196   C.ar      1 RES1   0.0000
    10 H10      2.0424  -5.3462 -15.0278   H         1 RES1   0.0000
    11 C11     -0.5410  -5.8434 -14.3880   C.2       1 RES1   0.0000
    12 F12      1.7741  -1.0026 -16.0515   F         1 RES1   0.0000
    13 N13     -1.2406  -7.9410 -14.1570   N.am      1 RES1   0.0000
    14 C14     -1.5106  -9.4109 -14.3092   C.3       1 RES1   0.0000
    15 H15     -1.0789  -9.7376 -15.2541   H         1 RES1   0.0000
    16 C16     -2.0882  -7.8386 -11.7803   C.3       1 RES1   0.0000
    17 H17     -2.6361  -7.1177 -11.1770   H         1 RES1   0.0000
    18 H18     -2.7550  -8.6688 -12.0043   H         1 RES1   0.0000
    19 H19     -1.2602  -8.2193 -11.1861   H         1 RES1   0.0000
    20 C20     -1.1594  -5.9688 -13.1688   C.2       1 RES1   0.0000
    21 C21     -1.4160  -4.9157 -12.1531   C.ar      1 RES1   0.0000
    22 O22     -0.1808  -7.5094 -16.1020   O.2       1 RES1   0.0000
    23 C23     -0.6007  -7.1206 -15.0199   C.2       1 RES1   0.0000
    24 N24     -1.5984  -7.2184 -13.0119   N.pl3     1 RES1   0.0000
    25 C25     -1.0831 -11.6911 -13.3373   C.3       1 RES1   0.0000
    26 H26     -0.6329 -12.2197 -12.4983   H         1 RES1   0.0000
    27 H27     -0.6342 -12.0371 -14.2672   H         1 RES1   0.0000
    28 C28     -3.2435 -11.2227 -14.4622   C.3       1 RES1   0.0000
    29 H29     -2.8591 -11.5671 -15.4211   H         1 RES1   0.0000
    30 H30     -4.3132 -11.4194 -14.4080   H         1 RES1   0.0000
    31 C31     -3.0042  -9.7256 -14.3369   C.3       1 RES1   0.0000
    32 H32     -3.4590  -9.2199 -15.1874   H         1 RES1   0.0000
    33 H33     -3.4607  -9.3679 -13.4152   H         1 RES1   0.0000
    34 C34     -0.8405 -10.1997 -13.1836   C.3       1 RES1   0.0000
    35 H35     -1.2470  -9.8704 -12.2284   H         1 RES1   0.0000
    36 H36      0.2316 -10.0101 -13.2065   H         1 RES1   0.0000
    37 N37     -2.5534 -11.9614 -13.3641   N.4       1 RES1   1.0000
    38 H38     -2.9542 -11.6762 -12.4762   H         1 RES1   0.0000
    39 H39     -2.7003 -12.9568 -13.4973   H         1 RES1   0.0000
    40 N40     -2.5784  -4.2520 -12.2536   N.ar      1 RES1   0.0000
    41 C41     -0.8501  -3.6050 -10.2773   C.ar      1 RES1   0.0000
    42 H42     -0.1544  -3.3547  -9.4832   H         1 RES1   0.0000
    43 N43     -3.9628  -2.6010 -11.4687   N.pl3     1 RES1   0.0000
    44 H44     -4.5763  -2.8263 -12.2518   H         1 RES1   0.0000
    45 C45     -0.5032  -4.6139 -11.1531   C.ar      1 RES1   0.0000
    46 H46      0.4396  -5.1435 -11.0647   H         1 RES1   0.0000
    47 C47     -2.8100  -3.2801 -11.3565   C.ar      1 RES1   0.0000
    48 N48     -1.9968  -2.9172 -10.3539   N.ar      1 RES1   0.0000
    49 C49     -4.3648  -1.5152 -10.5748   C.3       1 RES1   0.0000
    50 H50     -3.4624  -0.9765 -10.2467   H         1 RES1   0.0000
    51 C51     -5.0993  -2.0187  -9.3479   C.ar      1 RES1   0.0000
    52 C52     -5.2382  -0.5565 -11.3756   C.3       1 RES1   0.0000
    53 H53     -5.6337   0.2306 -10.7370   H         1 RES1   0.0000
    54 H54     -4.6679  -0.0891 -12.1757   H         1 RES1   0.0000
    55 H55     -6.0784  -1.0841 -11.8222   H         1 RES1   0.0000
    56 C56     -6.4624  -2.9429  -7.1011   C.ar      1 RES1   0.0000
    57 H57     -6.9931  -3.3036  -6.2262   H         1 RES1   0.0000
    58 C58     -6.4775  -2.1772  -9.3687   C.ar      1 RES1   0.0000
    59 H59     -7.0308  -1.9378 -10.2708   H         1 RES1   0.0000
    60 C60     -4.4152  -2.3290  -8.1805   C.ar      1 RES1   0.0000
    61 H61     -3.3374  -2.2113  -8.1398   H         1 RES1   0.0000
    62 C62     -5.0941  -2.7886  -7.0646   C.ar      1 RES1   0.0000
    63 H63     -4.5461  -3.0278  -6.1593   H         1 RES1   0.0000
    64 C64     -7.1545  -2.6376  -8.2523   C.ar      1 RES1   0.0000
    65 H65     -8.2323  -2.7580  -8.2845   H         1 RES1   0.0000
@<TRIPOS>BOND
     1     1     5   ar
     2     1     6   ar
     3     1     2    1
     4     3     8   ar
     5     3     9   ar
     6     3     4    1
     7     5     9   ar
     8     5    11    1
     9     6     8   ar
    10     6     7    1
    11     8    12    1
    12     9    10    1
    13    11    20    2
    14    11    23    1
    15    13    14    1
    16    13    23   am
    17    13    24    1
    18    14    31    1
    19    14    34    1
    20    14    15    1
    21    16    24    1
    22    16    17    1
    23    16    18    1
    24    16    19    1
    25    20    21    1
    26    20    24    1
    27    21    40   ar
    28    21    45   ar
    29    22    23    2
    30    25    34    1
    31    25    37    1
    32    25    26    1
    33    25    27    1
    34    28    31    1
    35    28    37    1
    36    28    29    1
    37    28    30    1
    38    31    32    1
    39    31    33    1
    40    34    35    1
    41    34    36    1
    42    37    38    1
    43    37    39    1
    44    40    47   ar
    45    41    45   ar
    46    41    48   ar
    47    41    42    1
    48    43    47    1
    49    43    49    1
    50    43    44    1
    51    45    46    1
    52    47    48   ar
    53    49    51    1
    54    49    52    1
    55    49    50    1
    56    51    58   ar
    57    51    60   ar
    58    52    53    1
    59    52    54    1
    60    52    55    1
    61    56    62   ar
    62    56    64   ar
    63    56    57    1
    64    58    64   ar
    65    58    59    1
    66    60    62   ar
    67    60    61    1
    68    62    63    1
    69    64    65    1
@<TRIPOS>SUBSTRUCTURE
     1 RES1        1 GROUP             0 ****  ****    0  
@<TRIPOS>MOLECULE
LIGAND_00248
    65    69     1     0     0
SMALL
USER_CHARGES
****
Generated from the CSD

@<TRIPOS>ATOM
     1 C1       0.1140  -3.8887 -12.3736   C.ar      1 RES1   0.0000
     2 H2       1.0608  -4.2874 -12.7216   H         1 RES1   0.0000
     3 C3      -2.2862  -2.8317 -11.5056   C.ar      1 RES1   0.0000
     4 H4      -3.2254  -2.4062 -11.1677   H         1 RES1   0.0000
     5 C5      -1.0640  -4.5703 -12.6644   C.ar      1 RES1   0.0000
     6 C6       0.1030  -2.7073 -11.6533   C.ar      1 RES1   0.0000
     7 H7       1.0274  -2.1881 -11.4232   H         1 RES1   0.0000
     8 C8      -1.1002  -2.2086 -11.2402   C.ar      1 RES1   0.0000
     9 C9      -2.2602  -4.0186 -12.2146   C.ar      1 RES1   0.0000
    10 H10     -3.1955  -4.5276 -12.4180   H         1 RES1   0.0000
    11 C11     -1.0682  -5.8490 -13.4469   C.2       1 RES1   0.0000
    12 F12     -1.1191  -1.0443 -10.5360   F         1 RES1   0.0000
    13 N13     -1.3104  -7.9280 -14.1962   N.am      1 RES1   0.0000
    14 C14     -1.6729  -9.3729 -14.3900   C.3       1 RES1   0.0000
    15 H15     -1.3499  -9.6716 -15.3861   H         1 RES1   0.0000
    16 C16     -0.5536  -7.6017 -16.5834   C.3       1 RES1   0.0000
    17 H17     -0.6621  -6.7669 -17.2727   H         1 RES1   0.0000
    18 H18      0.4292  -8.0424 -16.7375   H         1 RES1   0.0000
    19 H19     -1.3036  -8.3489 -16.8341   H         1 RES1   0.0000
    20 C20     -0.5870  -5.9122 -14.7311   C.2       1 RES1   0.0000
    21 C21      0.0604  -4.8376 -15.5265   C.ar      1 RES1   0.0000
    22 O22     -2.0481  -7.5930 -12.0901   O.2       1 RES1   0.0000
    23 C23     -1.5303  -7.1553 -13.1092   C.2       1 RES1   0.0000
    24 N24     -0.7116  -7.1550 -15.1989   N.pl3     1 RES1   0.0000
    25 C25     -1.2811 -11.7186 -13.5707   C.3       1 RES1   0.0000
    26 H26     -0.7838 -12.3113 -12.8044   H         1 RES1   0.0000
    27 H27     -0.9407 -12.0381 -14.5546   H         1 RES1   0.0000
    28 C28     -3.5085 -11.0860 -14.4598   C.3       1 RES1   0.0000
    29 H29     -3.2349 -11.3992 -15.4662   H         1 RES1   0.0000
    30 H30     -4.5776 -11.2317 -14.3124   H         1 RES1   0.0000
    31 C31     -3.1775  -9.6111 -14.2886   C.3       1 RES1   0.0000
    32 H32     -3.6816  -9.0402 -15.0670   H         1 RES1   0.0000
    33 H33     -3.5256  -9.2790 -13.3117   H         1 RES1   0.0000
    34 C34     -0.9444 -10.2510 -13.3718   C.3       1 RES1   0.0000
    35 H35     -1.2412  -9.9515 -12.3678   H         1 RES1   0.0000
    36 H36      0.1296 -10.1140 -13.4889   H         1 RES1   0.0000
    37 N37     -2.7600 -11.9136 -13.4687   N.4       1 RES1   1.0000
    38 H38     -3.0599 -11.6549 -12.5341   H         1 RES1   0.0000
    39 H39     -2.9726 -12.8923 -13.6334   H         1 RES1   0.0000
    40 N40     -0.4046  -3.5913 -15.3466   N.ar      1 RES1   0.0000
    41 C41      1.5970  -4.0162 -17.1142   C.ar      1 RES1   0.0000
    42 H42      2.4040  -4.1933 -17.8176   H         1 RES1   0.0000
    43 N43     -0.3230  -1.3716 -15.9161   N.pl3     1 RES1   0.0000
    44 H44      0.1258  -0.6150 -16.4323   H         1 RES1   0.0000
    45 C45      1.0863  -5.0967 -16.4235   C.ar      1 RES1   0.0000
    46 H46      1.4677  -6.1007 -16.5770   H         1 RES1   0.0000
    47 C47      0.1554  -2.6154 -16.0793   C.ar      1 RES1   0.0000
    48 N48      1.1511  -2.7621 -16.9655   N.ar      1 RES1   0.0000
    49 C49     -1.4063  -1.0242 -14.9966   C.3       1 RES1   0.0000
    50 H50     -1.3544  -1.6916 -14.1225   H         1 RES1   0.0000
    51 C51     -2.7742  -1.1693 -15.6341   C.ar      1 RES1   0.0000
    52 C52     -1.1741   0.4077 -14.5286   C.3       1 RES1   0.0000
    53 H53     -1.9370   0.7088 -13.8136   H         1 RES1   0.0000
    54 H54     -0.2026   0.5059 -14.0488   H         1 RES1   0.0000
    55 H55     -1.2077   1.0970 -15.3696   H         1 RES1   0.0000
    56 C56     -5.2836  -1.4254 -16.8162   C.ar      1 RES1   0.0000
    57 H57     -6.2608  -1.5258 -17.2769   H         1 RES1   0.0000
    58 C58     -3.1078  -0.4296 -16.7595   C.ar      1 RES1   0.0000
    59 H59     -2.3828   0.2570 -17.1838   H         1 RES1   0.0000
    60 C60     -3.7206  -2.0384 -15.1090   C.ar      1 RES1   0.0000
    61 H61     -3.4832  -2.6259 -14.2284   H         1 RES1   0.0000
    62 C62     -4.9675  -2.1649 -15.6978   C.ar      1 RES1   0.0000
    63 H63     -5.6970  -2.8487 -15.2768   H         1 RES1   0.0000
    64 C64     -4.3547  -0.5580 -17.3474   C.ar      1 RES1   0.0000
    65 H65     -4.6003   0.0259 -18.2283   H         1 RES1   0.0000
@<TRIPOS>BOND
     1     1     5   ar
     2     1     6   ar
     3     1     2    1
     4     3     8   ar
     5     3     9   ar
     6     3     4    1
     7     5     9   ar
     8     5    11    1
     9     6     8   ar
    10     6     7    1
    11     8    12    1
    12     9    10    1
    13    11    20    2
    14    11    23    1
    15    13    14    1
    16    13    23   am
    17    13    24    1
    18    14    31    1
    19    14    34    1
    20    14    15    1
    21    16    24    1
    22    16    17    1
    23    16    18    1
    24    16    19    1
    25    20    21    1
    26    20    24    1
    27    21    40   ar
    28    21    45   ar
    29    22    23    2
    30    25    34    1
    31    25    37    1
    32    25    26    1
    33    25    27    1
    34    28    31    1
    35    28    37    1
    36    28    29    1
    37    28    30    1
    38    31    32    1
    39    31    33    1
    40    34    35    1
    41    34    36    1
    42    37    38    1
    43    37    39    1
    44    40    47   ar
    45    41    45   ar
    46    41    48   ar
    47    41    42    1
    48    43    47    1
    49    43    49    1
    50    43    44    1
    51    45    46    1
    52    47    48   ar
    53    49    51    1
    54    49    52    1
    55    49    50    1
    56    51    58   ar
    57    51    60   ar
    58    52    53    1
    59    52    54    1
    60    52    55    1
    61    56    62   ar
    62    56    64   ar
    63    56    57    1
    64    58    64   ar
    65    58    59    1
    66    60    62   ar
    67    60    61    1
    68    62    63    1
    69    64    65    1
@<TRIPOS>SUBSTRUCTURE
     1 RES1        1 GROUP             0 ****  ****    0  
@<TRIPOS>MOLECULE
LIGAND_00249
    65    69     1     0     0
SMALL
USER_CHARGES
****
Generated from the CSD

@<TRIPOS>ATOM
     1 C1      -0.3699  -3.8964 -15.9917   C.ar      1 RES1   0.0000
     2 H2      -1.1641  -4.3348 -16.5863   H         1 RES1   0.0000
     3 C3       1.6298  -2.7392 -14.4772   C.ar      1 RES1   0.0000
     4 H4       2.4103  -2.2747 -13.8838   H         1 RES1   0.0000
     5 C5       0.0600  -4.5461 -14.8385   C.ar      1 RES1   0.0000
     6 C6       0.1913  -2.6974 -16.3941   C.ar      1 RES1   0.0000
     7 H7      -0.1439  -2.2032 -17.2999   H         1 RES1   0.0000
     8 C8       1.1766  -2.1489 -15.6224   C.ar      1 RES1   0.0000
     9 C9       1.0700  -3.9441 -14.0935   C.ar      1 RES1   0.0000
    10 H10      1.4331  -4.4270 -13.1934   H         1 RES1   0.0000
    11 C11     -0.5409  -5.8435 -14.3880   C.2       1 RES1   0.0000
    12 F12      1.7293  -0.9671 -16.0091   F         1 RES1   0.0000
    13 N13     -1.2406  -7.9410 -14.1571   N.am      1 RES1   0.0000
    14 C14     -1.5106  -9.4109 -14.3092   C.3       1 RES1   0.0000
    15 H15     -1.0789  -9.7376 -15.2541   H         1 RES1   0.0000
    16 C16     -2.0883  -7.8386 -11.7804   C.3       1 RES1   0.0000
    17 H17     -2.6364  -7.1178 -11.1772   H         1 RES1   0.0000
    18 H18     -2.7549  -8.6689 -12.0044   H         1 RES1   0.0000
    19 H19     -1.2603  -8.2190 -11.1859   H         1 RES1   0.0000
    20 C20     -1.1594  -5.9688 -13.1688   C.2       1 RES1   0.0000
    21 C21     -1.4160  -4.9157 -12.1531   C.ar      1 RES1   0.0000
    22 O22     -0.1808  -7.5094 -16.1020   O.2       1 RES1   0.0000
    23 C23     -0.6007  -7.1206 -15.0199   C.2       1 RES1   0.0000
    24 N24     -1.5985  -7.2184 -13.0119   N.pl3     1 RES1   0.0000
    25 C25     -1.0833 -11.6911 -13.3373   C.3       1 RES1   0.0000
    26 H26     -0.6332 -12.2197 -12.4982   H         1 RES1   0.0000
    27 H27     -0.6344 -12.0371 -14.2672   H         1 RES1   0.0000
    28 C28     -3.2436 -11.2226 -14.4623   C.3       1 RES1   0.0000
    29 H29     -2.8591 -11.5670 -15.4212   H         1 RES1   0.0000
    30 H30     -4.3133 -11.4193 -14.4083   H         1 RES1   0.0000
    31 C31     -3.0042  -9.7256 -14.3371   C.3       1 RES1   0.0000
    32 H32     -3.4590  -9.2198 -15.1876   H         1 RES1   0.0000
    33 H33     -3.4608  -9.3678 -13.4154   H         1 RES1   0.0000
    34 C34     -0.8406 -10.1997 -13.1835   C.3       1 RES1   0.0000
    35 H35     -1.2472  -9.8704 -12.2284   H         1 RES1   0.0000
    36 H36      0.2315 -10.0102 -13.2064   H         1 RES1   0.0000
    37 N37     -2.5536 -11.9613 -13.3642   N.4       1 RES1   1.0000
    38 H38     -2.9545 -11.6761 -12.4764   H         1 RES1   0.0000
    39 H39     -2.7005 -12.9568 -13.4975   H         1 RES1   0.0000
    40 N40     -0.8662  -5.0993 -10.9425   N.ar      1 RES1   0.0000
    41 C41     -2.3708  -2.8985 -11.3940   C.ar      1 RES1   0.0000
    42 H42     -2.9709  -2.0147 -11.5841   H         1 RES1   0.0000
    43 N43     -0.5809  -4.3597  -8.7908   N.pl3     1 RES1   0.0000
    44 H44     -0.7001  -3.6237  -8.0948   H         1 RES1   0.0000
    45 C45     -2.1938  -3.7996 -12.4246   C.ar      1 RES1   0.0000
    46 H46     -2.6438  -3.6432 -13.3994   H         1 RES1   0.0000
    47 C47     -1.1127  -4.1667 -10.0084   C.ar      1 RES1   0.0000
    48 N48     -1.8442  -3.0549 -10.1726   N.ar      1 RES1   0.0000
    49 C49      0.2123  -5.5311  -8.4190   C.3       1 RES1   0.0000
    50 H50      0.5187  -5.4297  -7.3664   H         1 RES1   0.0000
    51 C51      1.4569  -5.6806  -9.2718   C.ar      1 RES1   0.0000
    52 C52     -0.6848  -6.7566  -8.5476   C.3       1 RES1   0.0000
    53 H53     -0.1366  -7.6640  -8.3028   H         1 RES1   0.0000
    54 H54     -1.5378  -6.6847  -7.8761   H         1 RES1   0.0000
    55 H55     -1.0611  -6.8524  -9.5639   H         1 RES1   0.0000
    56 C56      3.7360  -5.9648 -10.8482   C.ar      1 RES1   0.0000
    57 H57      4.6235  -6.0749 -11.4624   H         1 RES1   0.0000
    58 C58      1.4445  -6.4898 -10.3987   C.ar      1 RES1   0.0000
    59 H59      0.5363  -7.0186 -10.6688   H         1 RES1   0.0000
    60 C60      2.6321  -5.0175  -8.9462   C.ar      1 RES1   0.0000
    61 H61      2.6664  -4.3806  -8.0686   H         1 RES1   0.0000
    62 C62      3.7641  -5.1595  -9.7310   C.ar      1 RES1   0.0000
    63 H63      4.6755  -4.6346  -9.4647   H         1 RES1   0.0000
    64 C64      2.5770  -6.6300 -11.1826   C.ar      1 RES1   0.0000
    65 H65      2.5513  -7.2650 -12.0619   H         1 RES1   0.0000
@<TRIPOS>BOND
     1     1     5   ar
     2     1     6   ar
     3     1     2    1
     4     3     8   ar
     5     3     9   ar
     6     3     4    1
     7     5     9   ar
     8     5    11    1
     9     6     8   ar
    10     6     7    1
    11     8    12    1
    12     9    10    1
    13    11    20    2
    14    11    23    1
    15    13    14    1
    16    13    23   am
    17    13    24    1
    18    14    31    1
    19    14    34    1
    20    14    15    1
    21    16    24    1
    22    16    17    1
    23    16    18    1
    24    16    19    1
    25    20    21    1
    26    20    24    1
    27    21    40   ar
    28    21    45   ar
    29    22    23    2
    30    25    34    1
    31    25    37    1
    32    25    26    1
    33    25    27    1
    34    28    31    1
    35    28    37    1
    36    28    29    1
    37    28    30    1
    38    31    32    1
    39    31    33    1
    40    34    35    1
    41    34    36    1
    42    37    38    1
    43    37    39    1
    44    40    47   ar
    45    41    45   ar
    46    41    48   ar
    47    41    42    1
    48    43    47    1
    49    43    49    1
    50    43    44    1
    51    45    46    1
    52    47    48   ar
    53    49    51    1
    54    49    52    1
    55    49    50    1
    56    51    58   ar
    57    51    60   ar
    58    52    53    1
    59    52    54    1
    60    52    55    1
    61    56    62   ar
    62    56    64   ar
    63    56    57    1
    64    58    64   ar
    65    58    59    1
    66    60    62   ar
    67    60    61    1
    68    62    63    1
    69    64    65    1
@<TRIPOS>SUBSTRUCTURE
     1 RES1        1 GROUP             0 ****  ****    0  
@<TRIPOS>MOLECULE
LIGAND_00250
    65    69     1     0     0
SMALL
USER_CHARGES
****
Generated from the CSD

@<TRIPOS>ATOM
     1 C1      -0.3701  -3.8964 -15.9918   C.ar      1 RES1   0.0000
     2 H2      -1.1642  -4.3349 -16.5863   H         1 RES1   0.0000
     3 C3       1.6297  -2.7392 -14.4773   C.ar      1 RES1   0.0000
     4 H4       2.4102  -2.2746 -13.8839   H         1 RES1   0.0000
     5 C5       0.0599  -4.5461 -14.8386   C.ar      1 RES1   0.0000
     6 C6       0.1911  -2.6974 -16.3942   C.ar      1 RES1   0.0000
     7 H7      -0.1441  -2.2032 -17.2999   H         1 RES1   0.0000
     8 C8       1.1764  -2.1489 -15.6225   C.ar      1 RES1   0.0000
     9 C9       1.0700  -3.9440 -14.0935   C.ar      1 RES1   0.0000
    10 H10      1.4331  -4.4269 -13.1935   H         1 RES1   0.0000
    11 C11     -0.5410  -5.8434 -14.3880   C.2       1 RES1   0.0000
    12 F12      1.7291  -0.9670 -16.0092   F         1 RES1   0.0000
    13 N13     -1.2406  -7.9410 -14.1570   N.am      1 RES1   0.0000
    14 C14     -1.5106  -9.4109 -14.3092   C.3       1 RES1   0.0000
    15 H15     -1.0788  -9.7377 -15.2541   H         1 RES1   0.0000
    16 C16     -2.0882  -7.8386 -11.7803   C.3       1 RES1   0.0000
    17 H17     -2.6363  -7.1178 -11.1772   H         1 RES1   0.0000
    18 H18     -2.7548  -8.6690 -12.0043   H         1 RES1   0.0000
    19 H19     -1.2602  -8.2190 -11.1859   H         1 RES1   0.0000
    20 C20     -1.1594  -5.9688 -13.1688   C.2       1 RES1   0.0000
    21 C21     -1.4160  -4.9157 -12.1531   C.ar      1 RES1   0.0000
    22 O22     -0.1808  -7.5094 -16.1020   O.2       1 RES1   0.0000
    23 C23     -0.6007  -7.1206 -15.0199   C.2       1 RES1   0.0000
    24 N24     -1.5984  -7.2184 -13.0119   N.pl3     1 RES1   0.0000
    25 C25     -1.0832 -11.6911 -13.3372   C.3       1 RES1   0.0000
    26 H26     -0.6331 -12.2196 -12.4982   H         1 RES1   0.0000
    27 H27     -0.6343 -12.0371 -14.2671   H         1 RES1   0.0000
    28 C28     -3.2435 -11.2227 -14.4623   C.3       1 RES1   0.0000
    29 H29     -2.8590 -11.5671 -15.4212   H         1 RES1   0.0000
    30 H30     -4.3132 -11.4194 -14.4082   H         1 RES1   0.0000
    31 C31     -3.0042  -9.7256 -14.3370   C.3       1 RES1   0.0000
    32 H32     -3.4589  -9.2199 -15.1875   H         1 RES1   0.0000
    33 H33     -3.4607  -9.3678 -13.4154   H         1 RES1   0.0000
    34 C34     -0.8406 -10.1997 -13.1835   C.3       1 RES1   0.0000
    35 H35     -1.2471  -9.8704 -12.2284   H         1 RES1   0.0000
    36 H36      0.2316 -10.0101 -13.2064   H         1 RES1   0.0000
    37 N37     -2.5535 -11.9614 -13.3641   N.4       1 RES1   1.0000
    38 H38     -2.9544 -11.6761 -12.4763   H         1 RES1   0.0000
    39 H39     -2.7003 -12.9568 -13.4974   H         1 RES1   0.0000
    40 N40     -0.8662  -5.0993 -10.9425   N.ar      1 RES1   0.0000
    41 C41     -2.3708  -2.8985 -11.3940   C.ar      1 RES1   0.0000
    42 H42     -2.9709  -2.0147 -11.5841   H         1 RES1   0.0000
    43 N43     -0.5809  -4.3597  -8.7908   N.pl3     1 RES1   0.0000
    44 H44     -0.0842  -5.2338  -8.6189   H         1 RES1   0.0000
    45 C45     -2.1938  -3.7996 -12.4246   C.ar      1 RES1   0.0000
    46 H46     -2.6438  -3.6432 -13.3994   H         1 RES1   0.0000
    47 C47     -1.1127  -4.1667 -10.0084   C.ar      1 RES1   0.0000
    48 N48     -1.8442  -3.0549 -10.1726   N.ar      1 RES1   0.0000
    49 C49     -0.7232  -3.4230  -7.6764   C.3       1 RES1   0.0000
    50 H50     -0.1907  -3.8305  -6.8031   H         1 RES1   0.0000
    51 C51     -2.1726  -3.1950  -7.2946   C.ar      1 RES1   0.0000
    52 C52     -0.0565  -2.1144  -8.0843   C.3       1 RES1   0.0000
    53 H53     -0.1530  -1.3699  -7.2968   H         1 RES1   0.0000
    54 H54      1.0030  -2.2641  -8.2811   H         1 RES1   0.0000
    55 H55     -0.5152  -1.7144  -8.9862   H         1 RES1   0.0000
    56 C56     -4.8362  -2.7635  -6.6021   C.ar      1 RES1   0.0000
    57 H57     -5.8738  -2.5960  -6.3329   H         1 RES1   0.0000
    58 C58     -2.8763  -2.1185  -7.8153   C.ar      1 RES1   0.0000
    59 H59     -2.3830  -1.4365  -8.4999   H         1 RES1   0.0000
    60 C60     -2.8257  -4.0509  -6.4184   C.ar      1 RES1   0.0000
    61 H61     -2.2955  -4.8985  -5.9970   H         1 RES1   0.0000
    62 C62     -4.1499  -3.8354  -6.0754   C.ar      1 RES1   0.0000
    63 H63     -4.6477  -4.5131  -5.3899   H         1 RES1   0.0000
    64 C64     -4.2004  -1.9050  -7.4718   C.ar      1 RES1   0.0000
    65 H65     -4.7380  -1.0598  -7.8886   H         1 RES1   0.0000
@<TRIPOS>BOND
     1     1     5   ar
     2     1     6   ar
     3     1     2    1
     4     3     8   ar
     5     3     9   ar
     6     3     4    1
     7     5     9   ar
     8     5    11    1
     9     6     8   ar
    10     6     7    1
    11     8    12    1
    12     9    10    1
    13    11    20    2
    14    11    23    1
    15    13    14    1
    16    13    23   am
    17    13    24    1
    18    14    31    1
    19    14    34    1
    20    14    15    1
    21    16    24    1
    22    16    17    1
    23    16    18    1
    24    16    19    1
    25    20    21    1
    26    20    24    1
    27    21    40   ar
    28    21    45   ar
    29    22    23    2
    30    25    34    1
    31    25    37    1
    32    25    26    1
    33    25    27    1
    34    28    31    1
    35    28    37    1
    36    28    29    1
    37    28    30    1
    38    31    32    1
    39    31    33    1
    40    34    35    1
    41    34    36    1
    42    37    38    1
    43    37    39    1
    44    40    47   ar
    45    41    45   ar
    46    41    48   ar
    47    41    42    1
    48    43    47    1
    49    43    49    1
    50    43    44    1
    51    45    46    1
    52    47    48   ar
    53    49    51    1
    54    49    52    1
    55    49    50    1
    56    51    58   ar
    57    51    60   ar
    58    52    53    1
    59    52    54    1
    60    52    55    1
    61    56    62   ar
    62    56    64   ar
    63    56    57    1
    64    58    64   ar
    65    58    59    1
    66    60    62   ar
    67    60    61    1
    68    62    63    1
    69    64    65    1
@<TRIPOS>SUBSTRUCTURE
     1 RES1        1 GROUP             0 ****  ****    0  
@<TRIPOS>MOLECULE
LIGAND_00251
    65    69     1     0     0
SMALL
USER_CHARGES
****
Generated from the CSD

@<TRIPOS>ATOM
     1 C1      -0.7027  -3.3903 -14.9781   C.ar      1 RES1   0.0000
     2 H2      -1.7635  -3.4211 -14.7543   H         1 RES1   0.0000
     3 C3       2.0037  -3.2747 -15.5205   C.ar      1 RES1   0.0000
     4 H4       3.0672  -3.2194 -15.7282   H         1 RES1   0.0000
     5 C5       0.0599  -4.5461 -14.8386   C.ar      1 RES1   0.0000
     6 C6      -0.1343  -2.1985 -15.3916   C.ar      1 RES1   0.0000
     7 H7      -0.7388  -1.3050 -15.5067   H         1 RES1   0.0000
     8 C8       1.2073  -2.1727 -15.6497   C.ar      1 RES1   0.0000
     9 C9       1.4207  -4.4628 -15.1196   C.ar      1 RES1   0.0000
    10 H10      2.0424  -5.3462 -15.0278   H         1 RES1   0.0000
    11 C11     -0.5410  -5.8434 -14.3880   C.2       1 RES1   0.0000
    12 F12      1.7741  -1.0026 -16.0515   F         1 RES1   0.0000
    13 N13     -1.2406  -7.9410 -14.1570   N.am      1 RES1   0.0000
    14 C14     -1.5106  -9.4109 -14.3092   C.3       1 RES1   0.0000
    15 H15     -1.0788  -9.7377 -15.2541   H         1 RES1   0.0000
    16 C16     -2.0882  -7.8386 -11.7803   C.3       1 RES1   0.0000
    17 H17     -2.6363  -7.1178 -11.1772   H         1 RES1   0.0000
    18 H18     -2.7548  -8.6690 -12.0043   H         1 RES1   0.0000
    19 H19     -1.2602  -8.2190 -11.1859   H         1 RES1   0.0000
    20 C20     -1.1594  -5.9688 -13.1688   C.2       1 RES1   0.0000
    21 C21     -1.4160  -4.9157 -12.1531   C.ar      1 RES1   0.0000
    22 O22     -0.1808  -7.5094 -16.1020   O.2       1 RES1   0.0000
    23 C23     -0.6007  -7.1206 -15.0199   C.2       1 RES1   0.0000
    24 N24     -1.5984  -7.2184 -13.0119   N.pl3     1 RES1   0.0000
    25 C25     -1.0832 -11.6911 -13.3372   C.3       1 RES1   0.0000
    26 H26     -0.6331 -12.2196 -12.4982   H         1 RES1   0.0000
    27 H27     -0.6343 -12.0371 -14.2671   H         1 RES1   0.0000
    28 C28     -3.2435 -11.2227 -14.4623   C.3       1 RES1   0.0000
    29 H29     -2.8590 -11.5671 -15.4212   H         1 RES1   0.0000
    30 H30     -4.3132 -11.4194 -14.4082   H         1 RES1   0.0000
    31 C31     -3.0042  -9.7256 -14.3370   C.3       1 RES1   0.0000
    32 H32     -3.4589  -9.2199 -15.1875   H         1 RES1   0.0000
    33 H33     -3.4607  -9.3678 -13.4154   H         1 RES1   0.0000
    34 C34     -0.8406 -10.1997 -13.1835   C.3       1 RES1   0.0000
    35 H35     -1.2471  -9.8704 -12.2284   H         1 RES1   0.0000
    36 H36      0.2316 -10.0101 -13.2064   H         1 RES1   0.0000
    37 N37     -2.5535 -11.9614 -13.3641   N.4       1 RES1   1.0000
    38 H38     -2.9544 -11.6761 -12.4763   H         1 RES1   0.0000
    39 H39     -2.7003 -12.9568 -13.4974   H         1 RES1   0.0000
    40 N40     -2.6992  -4.6898 -11.8302   N.ar      1 RES1   0.0000
    41 C41     -0.7580  -3.2243 -10.6488   C.ar      1 RES1   0.0000
    42 H42      0.0265  -2.6440 -10.1743   H         1 RES1   0.0000
    43 N43     -4.2293  -3.4806 -10.6241   N.pl3     1 RES1   0.0000
    44 H44     -4.9484  -3.9887 -11.1389   H         1 RES1   0.0000
    45 C45     -0.3913  -4.1856 -11.5689   C.ar      1 RES1   0.0000
    46 H46      0.6486  -4.3597 -11.8246   H         1 RES1   0.0000
    47 C47     -2.9451  -3.7222 -10.9322   C.ar      1 RES1   0.0000
    48 N48     -2.0280  -2.9671 -10.3100   N.ar      1 RES1   0.0000
    49 C49     -4.6636  -2.4887  -9.6406   C.3       1 RES1   0.0000
    50 H50     -5.7634  -2.5011  -9.5895   H         1 RES1   0.0000
    51 C51     -4.2128  -1.0858  -9.9969   C.ar      1 RES1   0.0000
    52 C52     -4.1099  -2.9093  -8.2843   C.3       1 RES1   0.0000
    53 H53     -4.3850  -2.1906  -7.5151   H         1 RES1   0.0000
    54 H54     -4.4977  -3.8830  -7.9923   H         1 RES1   0.0000
    55 H55     -3.0242  -2.9727  -8.3154   H         1 RES1   0.0000
    56 C56     -3.3718   1.4903 -10.6427   C.ar      1 RES1   0.0000
    57 H57     -3.0440   2.4934 -10.8948   H         1 RES1   0.0000
    58 C58     -3.0408  -0.5672  -9.4653   C.ar      1 RES1   0.0000
    59 H59     -2.4452  -1.1722  -8.7897   H         1 RES1   0.0000
    60 C60     -4.9582  -0.2904 -10.8563   C.ar      1 RES1   0.0000
    61 H61     -5.8792  -0.6737 -11.2830   H         1 RES1   0.0000
    62 C62     -4.5388   0.9898 -11.1767   C.ar      1 RES1   0.0000
    63 H63     -5.1313   1.5998 -11.8503   H         1 RES1   0.0000
    64 C64     -2.6226   0.7128  -9.7873   C.ar      1 RES1   0.0000
    65 H65     -1.7029   1.1037  -9.3650   H         1 RES1   0.0000
@<TRIPOS>BOND
     1     1     5   ar
     2     1     6   ar
     3     1     2    1
     4     3     8   ar
     5     3     9   ar
     6     3     4    1
     7     5     9   ar
     8     5    11    1
     9     6     8   ar
    10     6     7    1
    11     8    12    1
    12     9    10    1
    13    11    20    2
    14    11    23    1
    15    13    14    1
    16    13    23   am
    17    13    24    1
    18    14    31    1
    19    14    34    1
    20    14    15    1
    21    16    24    1
    22    16    17    1
    23    16    18    1
    24    16    19    1
    25    20    21    1
    26    20    24    1
    27    21    40   ar
    28    21    45   ar
    29    22    23    2
    30    25    34    1
    31    25    37    1
    32    25    26    1
    33    25    27    1
    34    28    31    1
    35    28    37    1
    36    28    29    1
    37    28    30    1
    38    31    32    1
    39    31    33    1
    40    34    35    1
    41    34    36    1
    42    37    38    1
    43    37    39    1
    44    40    47   ar
    45    41    45   ar
    46    41    48   ar
    47    41    42    1
    48    43    47    1
    49    43    49    1
    50    43    44    1
    51    45    46    1
    52    47    48   ar
    53    49    51    1
    54    49    52    1
    55    49    50    1
    56    51    58   ar
    57    51    60   ar
    58    52    53    1
    59    52    54    1
    60    52    55    1
    61    56    62   ar
    62    56    64   ar
    63    56    57    1
    64    58    64   ar
    65    58    59    1
    66    60    62   ar
    67    60    61    1
    68    62    63    1
    69    64    65    1
@<TRIPOS>SUBSTRUCTURE
     1 RES1        1 GROUP             0 ****  ****    0  
@<TRIPOS>MOLECULE
LIGAND_00252
    65    69     1     0     0
SMALL
USER_CHARGES
****
Generated from the CSD

@<TRIPOS>ATOM
     1 C1      -0.4280  -3.4234 -14.9911   C.ar      1 RES1   0.0000
     2 H2      -1.5099  -3.4069 -14.9158   H         1 RES1   0.0000
     3 C3       2.3297  -3.4278 -15.1558   C.ar      1 RES1   0.0000
     4 H4       3.4130  -3.4196 -15.2153   H         1 RES1   0.0000
     5 C5       0.2583  -4.6050 -14.7274   C.ar      1 RES1   0.0000
     6 C6       0.2420  -2.2649 -15.3427   C.ar      1 RES1   0.0000
     7 H7      -0.3024  -1.3511 -15.5559   H         1 RES1   0.0000
     8 C8       1.6062  -2.2984 -15.4131   C.ar      1 RES1   0.0000
     9 C9       1.6472  -4.5823 -14.8188   C.ar      1 RES1   0.0000
    10 H10      2.2122  -5.4873 -14.6265   H         1 RES1   0.0000
    11 C11     -0.4534  -5.8667 -14.3417   C.2       1 RES1   0.0000
    12 F12      2.2721  -1.1613 -15.7530   F         1 RES1   0.0000
    13 N13     -1.2998  -7.9174 -14.1965   N.am      1 RES1   0.0000
    14 C14     -1.6524  -9.3643 -14.3934   C.3       1 RES1   0.0000
    15 H15     -1.1797  -9.7050 -15.3134   H         1 RES1   0.0000
    16 C16     -2.2975  -7.7937 -11.8799   C.3       1 RES1   0.0000
    17 H17     -2.8377  -7.0472 -11.3011   H         1 RES1   0.0000
    18 H18     -2.9994  -8.5754 -12.1629   H         1 RES1   0.0000
    19 H19     -1.5375  -8.2356 -11.2390   H         1 RES1   0.0000
    20 C20     -1.1594  -5.9688 -13.1688   C.2       1 RES1   0.0000
    21 C21     -1.4160  -4.9157 -12.1531   C.ar      1 RES1   0.0000
    22 O22     -0.0858  -7.5282 -16.0585   O.2       1 RES1   0.0000
    23 C23     -0.5520  -7.1283 -14.9997   C.2       1 RES1   0.0000
    24 N24     -1.6871  -7.1893 -13.0645   N.pl3     1 RES1   0.0000
    25 C25     -1.4384 -11.6810 -13.4375   C.3       1 RES1   0.0000
    26 H26     -1.0807 -12.2495 -12.5803   H         1 RES1   0.0000
    27 H27     -0.9509 -12.0423 -14.3417   H         1 RES1   0.0000
    28 C28     -3.4835 -11.0570 -14.6947   C.3       1 RES1   0.0000
    29 H29     -3.0580 -11.4121 -15.6321   H         1 RES1   0.0000
    30 H30     -4.5648 -11.1844 -14.7154   H         1 RES1   0.0000
    31 C31     -3.1578  -9.5806 -14.5262   C.3       1 RES1   0.0000
    32 H32     -3.5208  -9.0344 -15.3955   H         1 RES1   0.0000
    33 H33     -3.6517  -9.2070 -13.6304   H         1 RES1   0.0000
    34 C34     -1.1118 -10.2109 -13.2404   C.3       1 RES1   0.0000
    35 H35     -1.5599  -9.8693 -12.3086   H         1 RES1   0.0000
    36 H36     -0.0306 -10.0912 -13.1886   H         1 RES1   0.0000
    37 N37     -2.9179 -11.8545 -13.5669   N.4       1 RES1   1.0000
    38 H38     -3.3587 -11.5564 -12.7026   H         1 RES1   0.0000
    39 H39     -3.1188 -12.8363 -13.7281   H         1 RES1   0.0000
    40 N40     -0.8662  -5.0993 -10.9425   N.ar      1 RES1   0.0000
    41 C41     -2.3708  -2.8985 -11.3940   C.ar      1 RES1   0.0000
    42 H42     -2.9709  -2.0147 -11.5841   H         1 RES1   0.0000
    43 N43     -0.5809  -4.3597  -8.7908   N.pl3     1 RES1   0.0000
    44 H44     -0.7002  -3.6238  -8.0947   H         1 RES1   0.0000
    45 C45     -2.1938  -3.7996 -12.4246   C.ar      1 RES1   0.0000
    46 H46     -2.6438  -3.6432 -13.3994   H         1 RES1   0.0000
    47 C47     -1.1127  -4.1667 -10.0084   C.ar      1 RES1   0.0000
    48 N48     -1.8442  -3.0549 -10.1726   N.ar      1 RES1   0.0000
    49 C49      0.2125  -5.5310  -8.4191   C.3       1 RES1   0.0000
    50 H50      0.5188  -5.4297  -7.3664   H         1 RES1   0.0000
    51 C51      1.4572  -5.6801  -9.2718   C.ar      1 RES1   0.0000
    52 C52     -0.6843  -6.7567  -8.5479   C.3       1 RES1   0.0000
    53 H53     -0.1359  -7.6639  -8.3031   H         1 RES1   0.0000
    54 H54     -1.5374  -6.6850  -7.8764   H         1 RES1   0.0000
    55 H55     -1.0605  -6.8524  -9.5643   H         1 RES1   0.0000
    56 C56      3.7365  -5.9637 -10.8480   C.ar      1 RES1   0.0000
    57 H57      4.6241  -6.0734 -11.4622   H         1 RES1   0.0000
    58 C58      1.4450  -6.4892 -10.3988   C.ar      1 RES1   0.0000
    59 H59      0.5370  -7.0181 -10.6690   H         1 RES1   0.0000
    60 C60      2.6323  -5.0168  -8.9461   C.ar      1 RES1   0.0000
    61 H61      2.6663  -4.3799  -8.0684   H         1 RES1   0.0000
    62 C62      3.7644  -5.1584  -9.7307   C.ar      1 RES1   0.0000
    63 H63      4.6756  -4.6333  -9.4643   H         1 RES1   0.0000
    64 C64      2.5777  -6.6291 -11.1826   C.ar      1 RES1   0.0000
    65 H65      2.5522  -7.2640 -12.0619   H         1 RES1   0.0000
@<TRIPOS>BOND
     1     1     5   ar
     2     1     6   ar
     3     1     2    1
     4     3     8   ar
     5     3     9   ar
     6     3     4    1
     7     5     9   ar
     8     5    11    1
     9     6     8   ar
    10     6     7    1
    11     8    12    1
    12     9    10    1
    13    11    20    2
    14    11    23    1
    15    13    14    1
    16    13    23   am
    17    13    24    1
    18    14    31    1
    19    14    34    1
    20    14    15    1
    21    16    24    1
    22    16    17    1
    23    16    18    1
    24    16    19    1
    25    20    21    1
    26    20    24    1
    27    21    40   ar
    28    21    45   ar
    29    22    23    2
    30    25    34    1
    31    25    37    1
    32    25    26    1
    33    25    27    1
    34    28    31    1
    35    28    37    1
    36    28    29    1
    37    28    30    1
    38    31    32    1
    39    31    33    1
    40    34    35    1
    41    34    36    1
    42    37    38    1
    43    37    39    1
    44    40    47   ar
    45    41    45   ar
    46    41    48   ar
    47    41    42    1
    48    43    47    1
    49    43    49    1
    50    43    44    1
    51    45    46    1
    52    47    48   ar
    53    49    51    1
    54    49    52    1
    55    49    50    1
    56    51    58   ar
    57    51    60   ar
    58    52    53    1
    59    52    54    1
    60    52    55    1
    61    56    62   ar
    62    56    64   ar
    63    56    57    1
    64    58    64   ar
    65    58    59    1
    66    60    62   ar
    67    60    61    1
    68    62    63    1
    69    64    65    1
@<TRIPOS>SUBSTRUCTURE
     1 RES1        1 GROUP             0 ****  ****    0  
@<TRIPOS>MOLECULE
LIGAND_00253
    65    69     1     0     0
SMALL
USER_CHARGES
****
Generated from the CSD

@<TRIPOS>ATOM
     1 C1      -0.4286  -3.4234 -14.9915   C.ar      1 RES1   0.0000
     2 H2      -1.5105  -3.4071 -14.9162   H         1 RES1   0.0000
     3 C3       2.3290  -3.4274 -15.1562   C.ar      1 RES1   0.0000
     4 H4       3.4124  -3.4189 -15.2156   H         1 RES1   0.0000
     5 C5       0.2579  -4.6049 -14.7276   C.ar      1 RES1   0.0000
     6 C6       0.2411  -2.2649 -15.3433   C.ar      1 RES1   0.0000
     7 H7      -0.3034  -1.3511 -15.5566   H         1 RES1   0.0000
     8 C8       1.6054  -2.2981 -15.4136   C.ar      1 RES1   0.0000
     9 C9       1.6468  -4.5820 -14.8190   C.ar      1 RES1   0.0000
    10 H10      2.2119  -5.4868 -14.6266   H         1 RES1   0.0000
    11 C11     -0.4535  -5.8667 -14.3418   C.2       1 RES1   0.0000
    12 F12      2.2711  -1.1609 -15.7536   F         1 RES1   0.0000
    13 N13     -1.2997  -7.9174 -14.1964   N.am      1 RES1   0.0000
    14 C14     -1.6521  -9.3644 -14.3932   C.3       1 RES1   0.0000
    15 H15     -1.1795  -9.7051 -15.3132   H         1 RES1   0.0000
    16 C16     -2.2971  -7.7938 -11.8796   C.3       1 RES1   0.0000
    17 H17     -2.8372  -7.0474 -11.3008   H         1 RES1   0.0000
    18 H18     -2.9989  -8.5757 -12.1626   H         1 RES1   0.0000
    19 H19     -1.5370  -8.2356 -11.2389   H         1 RES1   0.0000
    20 C20     -1.1594  -5.9688 -13.1688   C.2       1 RES1   0.0000
    21 C21     -1.4160  -4.9157 -12.1531   C.ar      1 RES1   0.0000
    22 O22     -0.0860  -7.5281 -16.0586   O.2       1 RES1   0.0000
    23 C23     -0.5521  -7.1282 -14.9998   C.2       1 RES1   0.0000
    24 N24     -1.6869  -7.1894 -13.0644   N.pl3     1 RES1   0.0000
    25 C25     -1.4377 -11.6810 -13.4372   C.3       1 RES1   0.0000
    26 H26     -1.0797 -12.2495 -12.5801   H         1 RES1   0.0000
    27 H27     -0.9502 -12.0423 -14.3416   H         1 RES1   0.0000
    28 C28     -3.4830 -11.0574 -14.6941   C.3       1 RES1   0.0000
    29 H29     -3.0577 -11.4125 -15.6317   H         1 RES1   0.0000
    30 H30     -4.5643 -11.1849 -14.7147   H         1 RES1   0.0000
    31 C31     -3.1575  -9.5810 -14.5257   C.3       1 RES1   0.0000
    32 H32     -3.5207  -9.0348 -15.3951   H         1 RES1   0.0000
    33 H33     -3.6513  -9.2073 -13.6299   H         1 RES1   0.0000
    34 C34     -1.1112 -10.2109 -13.2403   C.3       1 RES1   0.0000
    35 H35     -1.5593  -9.8694 -12.3084   H         1 RES1   0.0000
    36 H36     -0.0300 -10.0910 -13.1886   H         1 RES1   0.0000
    37 N37     -2.9171 -11.8548 -13.5665   N.4       1 RES1   1.0000
    38 H38     -3.3578 -11.5567 -12.7021   H         1 RES1   0.0000
    39 H39     -3.1179 -12.8366 -13.7275   H         1 RES1   0.0000
    40 N40     -0.8662  -5.0993 -10.9425   N.ar      1 RES1   0.0000
    41 C41     -2.3708  -2.8985 -11.3940   C.ar      1 RES1   0.0000
    42 H42     -2.9709  -2.0147 -11.5841   H         1 RES1   0.0000
    43 N43     -0.5809  -4.3597  -8.7908   N.pl3     1 RES1   0.0000
    44 H44     -0.0842  -5.2338  -8.6189   H         1 RES1   0.0000
    45 C45     -2.1938  -3.7996 -12.4246   C.ar      1 RES1   0.0000
    46 H46     -2.6438  -3.6432 -13.3994   H         1 RES1   0.0000
    47 C47     -1.1127  -4.1667 -10.0084   C.ar      1 RES1   0.0000
    48 N48     -1.8442  -3.0549 -10.1726   N.ar      1 RES1   0.0000
    49 C49     -0.7233  -3.4230  -7.6763   C.3       1 RES1   0.0000
    50 H50     -0.1907  -3.8305  -6.8031   H         1 RES1   0.0000
    51 C51     -2.1727  -3.1951  -7.2945   C.ar      1 RES1   0.0000
    52 C52     -0.0567  -2.1144  -8.0843   C.3       1 RES1   0.0000
    53 H53     -0.1523  -1.3702  -7.2963   H         1 RES1   0.0000
    54 H54      1.0026  -2.2642  -8.2820   H         1 RES1   0.0000
    55 H55     -0.5161  -1.7139  -8.9855   H         1 RES1   0.0000
    56 C56     -4.8363  -2.7639  -6.6020   C.ar      1 RES1   0.0000
    57 H57     -5.8739  -2.5965  -6.3328   H         1 RES1   0.0000
    58 C58     -2.8765  -2.1187  -7.8152   C.ar      1 RES1   0.0000
    59 H59     -2.3832  -1.4367  -8.4998   H         1 RES1   0.0000
    60 C60     -2.8257  -4.0512  -6.4184   C.ar      1 RES1   0.0000
    61 H61     -2.2954  -4.8987  -5.9971   H         1 RES1   0.0000
    62 C62     -4.1499  -3.8358  -6.0754   C.ar      1 RES1   0.0000
    63 H63     -4.6476  -4.5136  -5.3899   H         1 RES1   0.0000
    64 C64     -4.2006  -1.9053  -7.4717   C.ar      1 RES1   0.0000
    65 H65     -4.7383  -1.0602  -7.8884   H         1 RES1   0.0000
@<TRIPOS>BOND
     1     1     5   ar
     2     1     6   ar
     3     1     2    1
     4     3     8   ar
     5     3     9   ar
     6     3     4    1
     7     5     9   ar
     8     5    11    1
     9     6     8   ar
    10     6     7    1
    11     8    12    1
    12     9    10    1
    13    11    20    2
    14    11    23    1
    15    13    14    1
    16    13    23   am
    17    13    24    1
    18    14    31    1
    19    14    34    1
    20    14    15    1
    21    16    24    1
    22    16    17    1
    23    16    18    1
    24    16    19    1
    25    20    21    1
    26    20    24    1
    27    21    40   ar
    28    21    45   ar
    29    22    23    2
    30    25    34    1
    31    25    37    1
    32    25    26    1
    33    25    27    1
    34    28    31    1
    35    28    37    1
    36    28    29    1
    37    28    30    1
    38    31    32    1
    39    31    33    1
    40    34    35    1
    41    34    36    1
    42    37    38    1
    43    37    39    1
    44    40    47   ar
    45    41    45   ar
    46    41    48   ar
    47    41    42    1
    48    43    47    1
    49    43    49    1
    50    43    44    1
    51    45    46    1
    52    47    48   ar
    53    49    51    1
    54    49    52    1
    55    49    50    1
    56    51    58   ar
    57    51    60   ar
    58    52    53    1
    59    52    54    1
    60    52    55    1
    61    56    62   ar
    62    56    64   ar
    63    56    57    1
    64    58    64   ar
    65    58    59    1
    66    60    62   ar
    67    60    61    1
    68    62    63    1
    69    64    65    1
@<TRIPOS>SUBSTRUCTURE
     1 RES1        1 GROUP             0 ****  ****    0  
@<TRIPOS>MOLECULE
LIGAND_00254
    65    69     1     0     0
SMALL
USER_CHARGES
****
Generated from the CSD

@<TRIPOS>ATOM
     1 C1      -0.7661  -3.8367 -15.9790   C.ar      1 RES1   0.0000
     2 H2      -1.6383  -4.2803 -16.4470   H         1 RES1   0.0000
     3 C3       1.4319  -2.6670 -14.7821   C.ar      1 RES1   0.0000
     4 H4       2.2899  -2.1977 -14.3123   H         1 RES1   0.0000
     5 C5      -0.1374  -4.5040 -14.9320   C.ar      1 RES1   0.0000
     6 C6      -0.3049  -2.6138 -16.4333   C.ar      1 RES1   0.0000
     7 H7      -0.7958  -2.1057 -17.2565   H         1 RES1   0.0000
     8 C8       0.7828  -2.0599 -15.8191   C.ar      1 RES1   0.0000
     9 C9       0.9691  -3.8952 -14.3466   C.ar      1 RES1   0.0000
    10 H10      1.4864  -4.3912 -13.5333   H         1 RES1   0.0000
    11 C11     -0.6277  -5.8274 -14.4266   C.2       1 RES1   0.0000
    12 F12      1.2386  -0.8548 -16.2570   F         1 RES1   0.0000
    13 N13     -1.1810  -7.9592 -14.1231   N.am      1 RES1   0.0000
    14 C14     -1.3689  -9.4452 -14.2379   C.3       1 RES1   0.0000
    15 H15     -0.9782  -9.7615 -15.2039   H         1 RES1   0.0000
    16 C16     -1.8822  -7.8671 -11.6988   C.3       1 RES1   0.0000
    17 H17     -2.4346  -7.1704 -11.0716   H         1 RES1   0.0000
    18 H18     -2.5091  -8.7400 -11.8685   H         1 RES1   0.0000
    19 H19     -0.9966  -8.1862 -11.1534   H         1 RES1   0.0000
    20 C20     -1.1594  -5.9688 -13.1688   C.2       1 RES1   0.0000
    21 C21     -1.4160  -4.9157 -12.1531   C.ar      1 RES1   0.0000
    22 O22     -0.2741  -7.4980 -16.1374   O.2       1 RES1   0.0000
    23 C23     -0.6483  -7.1166 -15.0361   C.2       1 RES1   0.0000
    24 N24     -1.5099  -7.2398 -12.9673   N.pl3     1 RES1   0.0000
    25 C25     -0.7416 -11.6781 -13.2645   C.3       1 RES1   0.0000
    26 H26     -0.2079 -12.1637 -12.4489   H         1 RES1   0.0000
    27 H27     -0.3317 -12.0123 -14.2164   H         1 RES1   0.0000
    28 C28     -2.9932 -11.3610 -14.2556   C.3       1 RES1   0.0000
    29 H29     -2.6493 -11.6981 -15.2323   H         1 RES1   0.0000
    30 H30     -4.0432 -11.6212 -14.1307   H         1 RES1   0.0000
    31 C31     -2.8391  -9.8502 -14.1661   C.3       1 RES1   0.0000
    32 H32     -3.3767  -9.3878 -14.9925   H         1 RES1   0.0000
    33 H33     -3.2580  -9.5048 -13.2220   H         1 RES1   0.0000
    34 C34     -0.5822 -10.1723 -13.1467   C.3       1 RES1   0.0000
    35 H35     -0.9473  -9.8516 -12.1722   H         1 RES1   0.0000
    36 H36      0.4727  -9.9185 -13.2406   H         1 RES1   0.0000
    37 N37     -2.1913 -12.0373 -13.1938   N.4       1 RES1   1.0000
    38 H38     -2.5524 -11.7615 -12.2862   H         1 RES1   0.0000
    39 H39     -2.2847 -13.0420 -13.3040   H         1 RES1   0.0000
    40 N40     -2.6992  -4.6898 -11.8302   N.ar      1 RES1   0.0000
    41 C41     -0.7580  -3.2243 -10.6488   C.ar      1 RES1   0.0000
    42 H42      0.0265  -2.6440 -10.1743   H         1 RES1   0.0000
    43 N43     -4.2293  -3.4806 -10.6241   N.pl3     1 RES1   0.0000
    44 H44     -4.9484  -3.9887 -11.1389   H         1 RES1   0.0000
    45 C45     -0.3913  -4.1856 -11.5689   C.ar      1 RES1   0.0000
    46 H46      0.6486  -4.3597 -11.8246   H         1 RES1   0.0000
    47 C47     -2.9451  -3.7222 -10.9322   C.ar      1 RES1   0.0000
    48 N48     -2.0280  -2.9671 -10.3100   N.ar      1 RES1   0.0000
    49 C49     -4.6636  -2.4887  -9.6407   C.3       1 RES1   0.0000
    50 H50     -5.7634  -2.5010  -9.5896   H         1 RES1   0.0000
    51 C51     -4.2127  -1.0857  -9.9970   C.ar      1 RES1   0.0000
    52 C52     -4.1100  -2.9092  -8.2843   C.3       1 RES1   0.0000
    53 H53     -4.3859  -2.1910  -7.5150   H         1 RES1   0.0000
    54 H54     -4.4970  -3.8834  -7.9928   H         1 RES1   0.0000
    55 H55     -3.0242  -2.9716  -8.3151   H         1 RES1   0.0000
    56 C56     -3.3716   1.4903 -10.6428   C.ar      1 RES1   0.0000
    57 H57     -3.0438   2.4933 -10.8950   H         1 RES1   0.0000
    58 C58     -3.0408  -0.5671  -9.4654   C.ar      1 RES1   0.0000
    59 H59     -2.4452  -1.1721  -8.7897   H         1 RES1   0.0000
    60 C60     -4.9581  -0.2904 -10.8565   C.ar      1 RES1   0.0000
    61 H61     -5.8790  -0.6737 -11.2832   H         1 RES1   0.0000
    62 C62     -4.5386   0.9897 -11.1769   C.ar      1 RES1   0.0000
    63 H63     -5.1310   1.5997 -11.8506   H         1 RES1   0.0000
    64 C64     -2.6225   0.7128  -9.7874   C.ar      1 RES1   0.0000
    65 H65     -1.7028   1.1038  -9.3651   H         1 RES1   0.0000
@<TRIPOS>BOND
     1     1     5   ar
     2     1     6   ar
     3     1     2    1
     4     3     8   ar
     5     3     9   ar
     6     3     4    1
     7     5     9   ar
     8     5    11    1
     9     6     8   ar
    10     6     7    1
    11     8    12    1
    12     9    10    1
    13    11    20    2
    14    11    23    1
    15    13    14    1
    16    13    23   am
    17    13    24    1
    18    14    31    1
    19    14    34    1
    20    14    15    1
    21    16    24    1
    22    16    17    1
    23    16    18    1
    24    16    19    1
    25    20    21    1
    26    20    24    1
    27    21    40   ar
    28    21    45   ar
    29    22    23    2
    30    25    34    1
    31    25    37    1
    32    25    26    1
    33    25    27    1
    34    28    31    1
    35    28    37    1
    36    28    29    1
    37    28    30    1
    38    31    32    1
    39    31    33    1
    40    34    35    1
    41    34    36    1
    42    37    38    1
    43    37    39    1
    44    40    47   ar
    45    41    45   ar
    46    41    48   ar
    47    41    42    1
    48    43    47    1
    49    43    49    1
    50    43    44    1
    51    45    46    1
    52    47    48   ar
    53    49    51    1
    54    49    52    1
    55    49    50    1
    56    51    58   ar
    57    51    60   ar
    58    52    53    1
    59    52    54    1
    60    52    55    1
    61    56    62   ar
    62    56    64   ar
    63    56    57    1
    64    58    64   ar
    65    58    59    1
    66    60    62   ar
    67    60    61    1
    68    62    63    1
    69    64    65    1
@<TRIPOS>SUBSTRUCTURE
     1 RES1        1 GROUP             0 ****  ****    0  
@<TRIPOS>MOLECULE
LIGAND_00255
    65    69     1     0     0
SMALL
USER_CHARGES
****
Generated from the CSD

@<TRIPOS>ATOM
     1 C1      -3.0725  -3.8328 -15.3608   C.ar      1 RES1   0.0000
     2 H2      -3.8944  -4.2508 -14.7897   H         1 RES1   0.0000
     3 C3      -0.9858  -2.7274 -16.7945   C.ar      1 RES1   0.0000
     4 H4      -0.1690  -2.2830 -17.3536   H         1 RES1   0.0000
     5 C5      -1.8487  -4.4952 -15.3839   C.ar      1 RES1   0.0000
     6 C6      -3.2621  -2.6468 -16.0477   C.ar      1 RES1   0.0000
     7 H7      -4.2226  -2.1428 -16.0316   H         1 RES1   0.0000
     8 C8      -2.2100  -2.1239 -16.7455   C.ar      1 RES1   0.0000
     9 C9      -0.8134  -3.9192 -16.1148   C.ar      1 RES1   0.0000
    10 H10      0.1508  -4.4127 -16.1594   H         1 RES1   0.0000
    11 C11     -1.6271  -5.7786 -14.6417   C.2       1 RES1   0.0000
    12 F12     -2.3877  -0.9548 -17.4190   F         1 RES1   0.0000
    13 N13     -1.2273  -7.9377 -14.1568   N.am      1 RES1   0.0000
    14 C14     -1.4820  -9.4110 -14.3016   C.3       1 RES1   0.0000
    15 H15     -1.1964  -9.7057 -15.3103   H         1 RES1   0.0000
    16 C16     -0.8622  -7.6841 -11.7813   C.3       1 RES1   0.0000
    17 H17     -1.4299  -8.4048 -11.1963   H         1 RES1   0.0000
    18 H18      0.0841  -8.1438 -12.0589   H         1 RES1   0.0000
    19 H19     -0.6496  -6.8252 -11.1484   H         1 RES1   0.0000
    20 C20     -1.7513  -5.9390 -13.3057   C.2       1 RES1   0.0000
    21 C21     -2.0254  -4.9138 -12.2663   C.ar      1 RES1   0.0000
    22 O22     -1.1934  -7.3976 -16.3901   O.2       1 RES1   0.0000
    23 C23     -1.3107  -7.0551 -15.2207   C.2       1 RES1   0.0000
    24 N24     -1.6110  -7.2769 -12.9708   N.3       1 RES1   0.0000
    25 C25     -0.8517 -11.6982 -13.4660   C.3       1 RES1   0.0000
    26 H26     -0.2624 -12.2314 -12.7213   H         1 RES1   0.0000
    27 H27     -0.5464 -12.0120 -14.4631   H         1 RES1   0.0000
    28 C28     -3.1728 -11.2669 -14.2265   C.3       1 RES1   0.0000
    29 H29     -2.9358 -11.5803 -15.2421   H         1 RES1   0.0000
    30 H30     -4.2156 -11.4945 -14.0104   H         1 RES1   0.0000
    31 C31     -2.9532  -9.7667 -14.1028   C.3       1 RES1   0.0000
    32 H32     -3.5483  -9.2562 -14.8586   H         1 RES1   0.0000
    33 H33     -3.2677  -9.4411 -13.1123   H         1 RES1   0.0000
    34 C34     -0.6242 -10.2042 -13.3149   C.3       1 RES1   0.0000
    35 H35     -0.8834  -9.9064 -12.2999   H         1 RES1   0.0000
    36 H36      0.4260  -9.9842 -13.5007   H         1 RES1   0.0000
    37 N37     -2.3009 -12.0088 -13.2688   N.4       1 RES1   1.0000
    38 H38     -2.5640 -11.7535 -12.3223   H         1 RES1   0.0000
    39 H39     -2.4427 -13.0050 -13.4023   H         1 RES1   0.0000
    40 N40     -2.7110  -5.3194 -11.1860   N.ar      1 RES1   0.0000
    41 C41     -1.9384  -2.7348 -11.3712   C.ar      1 RES1   0.0000
    42 H42     -1.6199  -1.7005 -11.4495   H         1 RES1   0.0000
    43 N43     -3.6913  -4.7948  -9.1804   N.pl3     1 RES1   0.0000
    44 H44     -4.0000  -5.7663  -9.1461   H         1 RES1   0.0000
    45 C45     -1.6108  -3.5967 -12.3985   C.ar      1 RES1   0.0000
    46 H46     -1.0576  -3.2589 -13.2686   H         1 RES1   0.0000
    47 C47     -2.9872  -4.3954 -10.2516   C.ar      1 RES1   0.0000
    48 N48     -2.6281  -3.1038 -10.2841   N.ar      1 RES1   0.0000
    49 C49     -4.0975  -3.9088  -8.0898   C.3       1 RES1   0.0000
    50 H50     -3.2017  -3.4098  -7.6888   H         1 RES1   0.0000
    51 C51     -4.7793  -4.6568  -6.9610   C.ar      1 RES1   0.0000
    52 C52     -5.0225  -2.8484  -8.6756   C.3       1 RES1   0.0000
    53 H53     -5.7043  -2.4691  -7.9173   H         1 RES1   0.0000
    54 H54     -4.4513  -2.0095  -9.0676   H         1 RES1   0.0000
    55 H55     -5.6162  -3.2628  -9.4877   H         1 RES1   0.0000
    56 C56     -6.0431  -6.0360  -4.8968   C.ar      1 RES1   0.0000
    57 H57     -6.5348  -6.5737  -4.0929   H         1 RES1   0.0000
    58 C58     -5.9443  -5.3732  -7.1946   C.ar      1 RES1   0.0000
    59 H59     -6.3683  -5.3960  -8.1931   H         1 RES1   0.0000
    60 C60     -4.2591  -4.6410  -5.6741   C.ar      1 RES1   0.0000
    61 H61     -3.3500  -4.0861  -5.4670   H         1 RES1   0.0000
    62 C62     -4.8881  -5.3273  -4.6492   C.ar      1 RES1   0.0000
    63 H63     -4.4697  -5.3065  -3.6485   H         1 RES1   0.0000
    64 C64     -6.5716  -6.0595  -6.1687   C.ar      1 RES1   0.0000
    65 H65     -7.4810  -6.6167  -6.3673   H         1 RES1   0.0000
@<TRIPOS>BOND
     1     1     5   ar
     2     1     6   ar
     3     1     2    1
     4     3     8   ar
     5     3     9   ar
     6     3     4    1
     7     5     9   ar
     8     5    11    1
     9     6     8   ar
    10     6     7    1
    11     8    12    1
    12     9    10    1
    13    11    20    2
    14    11    23    1
    15    13    14    1
    16    13    23   am
    17    13    24    1
    18    14    31    1
    19    14    34    1
    20    14    15    1
    21    16    24    1
    22    16    17    1
    23    16    18    1
    24    16    19    1
    25    20    21    1
    26    20    24    1
    27    21    40   ar
    28    21    45   ar
    29    22    23    2
    30    25    34    1
    31    25    37    1
    32    25    26    1
    33    25    27    1
    34    28    31    1
    35    28    37    1
    36    28    29    1
    37    28    30    1
    38    31    32    1
    39    31    33    1
    40    34    35    1
    41    34    36    1
    42    37    38    1
    43    37    39    1
    44    40    47   ar
    45    41    45   ar
    46    41    48   ar
    47    41    42    1
    48    43    47    1
    49    43    49    1
    50    43    44    1
    51    45    46    1
    52    47    48   ar
    53    49    51    1
    54    49    52    1
    55    49    50    1
    56    51    58   ar
    57    51    60   ar
    58    52    53    1
    59    52    54    1
    60    52    55    1
    61    56    62   ar
    62    56    64   ar
    63    56    57    1
    64    58    64   ar
    65    58    59    1
    66    60    62   ar
    67    60    61    1
    68    62    63    1
    69    64    65    1
@<TRIPOS>SUBSTRUCTURE
     1 RES1        1 GROUP             0 ****  ****    0  
@<TRIPOS>MOLECULE
LIGAND_00256
    65    69     1     0     0
SMALL
USER_CHARGES
****
Generated from the CSD

@<TRIPOS>ATOM
     1 C1       0.6278  -4.0840 -15.5865   C.ar      1 RES1   0.0000
     2 H2      -0.0521  -4.4236 -16.3603   H         1 RES1   0.0000
     3 C3       2.3427  -3.1759 -13.6202   C.ar      1 RES1   0.0000
     4 H4       3.0131  -2.8087 -12.8502   H         1 RES1   0.0000
     5 C5       0.6821  -4.7672 -14.3753   C.ar      1 RES1   0.0000
     6 C6       1.4202  -2.9747 -15.8234   C.ar      1 RES1   0.0000
     7 H7       1.3778  -2.4544 -16.7744   H         1 RES1   0.0000
     8 C8       2.2563  -2.5485 -14.8302   C.ar      1 RES1   0.0000
     9 C9       1.5553  -4.2914 -13.4011   C.ar      1 RES1   0.0000
    10 H10      1.6274  -4.8043 -12.4488   H         1 RES1   0.0000
    11 C11     -0.1728  -5.9680 -14.1027   C.2       1 RES1   0.0000
    12 F12      3.0345  -1.4549 -15.0542   F         1 RES1   0.0000
    13 N13     -1.2834  -7.9058 -14.2109   N.am      1 RES1   0.0000
    14 C14     -1.6303  -9.3531 -14.4149   C.3       1 RES1   0.0000
    15 H15     -1.0408  -9.7272 -15.2507   H         1 RES1   0.0000
    16 C16     -3.0867  -7.3901 -12.6334   C.3       1 RES1   0.0000
    17 H17     -3.3540  -6.6466 -11.8854   H         1 RES1   0.0000
    18 H18     -3.7639  -7.2795 -13.4778   H         1 RES1   0.0000
    19 H19     -3.2409  -8.3768 -12.2017   H         1 RES1   0.0000
    20 C20     -1.0688  -6.0097 -13.0848   C.2       1 RES1   0.0000
    21 C21     -1.4087  -4.9383 -12.1137   C.ar      1 RES1   0.0000
    22 O22      0.3622  -7.6249 -15.8031   O.2       1 RES1   0.0000
    23 C23     -0.2687  -7.2007 -14.8437   C.2       1 RES1   0.0000
    24 N24     -1.6960  -7.2229 -13.0570   N.3       1 RES1   0.0000
    25 C25     -1.5905 -11.6431 -13.3752   C.3       1 RES1   0.0000
    26 H26     -1.3646 -12.1907 -12.4614   H         1 RES1   0.0000
    27 H27     -0.9889 -12.0375 -14.1928   H         1 RES1   0.0000
    28 C28     -3.4310 -11.0295 -14.9206   C.3       1 RES1   0.0000
    29 H29     -2.8862 -11.4179 -15.7799   H         1 RES1   0.0000
    30 H30     -4.5011 -11.1431 -15.0876   H         1 RES1   0.0000
    31 C31     -3.1063  -9.5533 -14.7492   C.3       1 RES1   0.0000
    32 H32     -3.3362  -9.0282 -15.6752   H         1 RES1   0.0000
    33 H33     -3.7128  -9.1467 -13.9412   H         1 RES1   0.0000
    34 C34     -1.2689 -10.1723 -13.1753   C.3       1 RES1   0.0000
    35 H35     -1.8357  -9.7974 -12.3243   H         1 RES1   0.0000
    36 H36     -0.2034 -10.0655 -12.9773   H         1 RES1   0.0000
    37 N37     -3.0406 -11.8007 -13.7038   N.4       1 RES1   1.0000
    38 H38     -3.5915 -11.4713 -12.9175   H         1 RES1   0.0000
    39 H39     -3.2343 -12.7841 -13.8642   H         1 RES1   0.0000
    40 N40     -1.6971  -5.3286 -10.8622   N.ar      1 RES1   0.0000
    41 C41     -1.7864  -2.6985 -11.4834   C.ar      1 RES1   0.0000
    42 H42     -1.8145  -1.6442 -11.7382   H         1 RES1   0.0000
    43 N43     -2.3404  -4.7619  -8.7354   N.pl3     1 RES1   0.0000
    44 H44     -2.4524  -4.0414  -8.0223   H         1 RES1   0.0000
    45 C45     -1.4428  -3.5986 -12.4718   C.ar      1 RES1   0.0000
    46 H46     -1.2129  -3.2734 -13.4811   H         1 RES1   0.0000
    47 C47     -2.0310  -4.3711  -9.9821   C.ar      1 RES1   0.0000
    48 N48     -2.0881  -3.0541 -10.2279   N.ar      1 RES1   0.0000
    49 C49     -2.4650  -6.1594  -8.3217   C.3       1 RES1   0.0000
    50 H50     -1.8829  -6.7856  -9.0155   H         1 RES1   0.0000
    51 C51     -3.9033  -6.6386  -8.3300   C.ar      1 RES1   0.0000
    52 C52     -1.8585  -6.2851  -6.9290   C.3       1 RES1   0.0000
    53 H53     -1.8951  -7.3161  -6.5834   H         1 RES1   0.0000
    54 H54     -0.8189  -5.9643  -6.9286   H         1 RES1   0.0000
    55 H55     -2.4030  -5.6697  -6.2159   H         1 RES1   0.0000
    56 C56     -6.5447  -7.5236  -8.3306   C.ar      1 RES1   0.0000
    57 H57     -7.5737  -7.8676  -8.3307   H         1 RES1   0.0000
    58 C58     -4.4582  -7.2183  -7.1982   C.ar      1 RES1   0.0000
    59 H59     -3.8559  -7.3287  -6.3026   H         1 RES1   0.0000
    60 C60     -4.6940  -6.5118  -9.4639   C.ar      1 RES1   0.0000
    61 H61     -4.2814  -6.0633 -10.3615   H         1 RES1   0.0000
    62 C62     -6.0069  -6.9519  -9.4626   C.ar      1 RES1   0.0000
    63 H63     -6.6133  -6.8457 -10.3559   H         1 RES1   0.0000
    64 C64     -5.7714  -7.6571  -7.1985   C.ar      1 RES1   0.0000
    65 H65     -6.1918  -8.1068  -6.3052   H         1 RES1   0.0000
@<TRIPOS>BOND
     1     1     5   ar
     2     1     6   ar
     3     1     2    1
     4     3     8   ar
     5     3     9   ar
     6     3     4    1
     7     5     9   ar
     8     5    11    1
     9     6     8   ar
    10     6     7    1
    11     8    12    1
    12     9    10    1
    13    11    20    2
    14    11    23    1
    15    13    14    1
    16    13    23   am
    17    13    24    1
    18    14    31    1
    19    14    34    1
    20    14    15    1
    21    16    24    1
    22    16    17    1
    23    16    18    1
    24    16    19    1
    25    20    21    1
    26    20    24    1
    27    21    40   ar
    28    21    45   ar
    29    22    23    2
    30    25    34    1
    31    25    37    1
    32    25    26    1
    33    25    27    1
    34    28    31    1
    35    28    37    1
    36    28    29    1
    37    28    30    1
    38    31    32    1
    39    31    33    1
    40    34    35    1
    41    34    36    1
    42    37    38    1
    43    37    39    1
    44    40    47   ar
    45    41    45   ar
    46    41    48   ar
    47    41    42    1
    48    43    47    1
    49    43    49    1
    50    43    44    1
    51    45    46    1
    52    47    48   ar
    53    49    51    1
    54    49    52    1
    55    49    50    1
    56    51    58   ar
    57    51    60   ar
    58    52    53    1
    59    52    54    1
    60    52    55    1
    61    56    62   ar
    62    56    64   ar
    63    56    57    1
    64    58    64   ar
    65    58    59    1
    66    60    62   ar
    67    60    61    1
    68    62    63    1
    69    64    65    1
@<TRIPOS>SUBSTRUCTURE
     1 RES1        1 GROUP             0 ****  ****    0  
@<TRIPOS>MOLECULE
LIGAND_00257
    65    69     1     0     0
SMALL
USER_CHARGES
****
Generated from the CSD

@<TRIPOS>ATOM
     1 C1       0.0634  -3.5128 -14.7024   C.ar      1 RES1   0.0000
     2 H2      -1.0170  -3.4178 -14.7152   H         1 RES1   0.0000
     3 C3       2.8177  -3.7177 -14.6415   C.ar      1 RES1   0.0000
     4 H4       3.9000  -3.7883 -14.6121   H         1 RES1   0.0000
     5 C5       0.6385  -4.7466 -14.4132   C.ar      1 RES1   0.0000
     6 C6       0.8420  -2.4005 -14.9689   C.ar      1 RES1   0.0000
     7 H7       0.3845  -1.4450 -15.2028   H         1 RES1   0.0000
     8 C8       2.2014  -2.5332 -14.9285   C.ar      1 RES1   0.0000
     9 C9       2.0281  -4.8249 -14.3904   C.ar      1 RES1   0.0000
    10 H10      2.5085  -5.7726 -14.1753   H         1 RES1   0.0000
    11 C11     -0.1919  -5.9595 -14.1187   C.2       1 RES1   0.0000
    12 F12      2.9734  -1.4421 -15.1842   F         1 RES1   0.0000
    13 N13     -1.2726  -7.9155 -14.1964   N.am      1 RES1   0.0000
    14 C14     -1.5995  -9.3693 -14.3862   C.3       1 RES1   0.0000
    15 H15     -1.0123  -9.7410 -15.2246   H         1 RES1   0.0000
    16 C16     -3.0556  -7.4199 -12.5898   C.3       1 RES1   0.0000
    17 H17     -3.3137  -6.6919 -11.8234   H         1 RES1   0.0000
    18 H18     -3.7513  -7.3006 -13.4178   H         1 RES1   0.0000
    19 H19     -3.1923  -8.4153 -12.1725   H         1 RES1   0.0000
    20 C20     -1.0688  -6.0097 -13.0848   C.2       1 RES1   0.0000
    21 C21     -1.4087  -4.9383 -12.1137   C.ar      1 RES1   0.0000
    22 O22      0.3396  -7.6173 -15.8193   O.2       1 RES1   0.0000
    23 C23     -0.2809  -7.1978 -14.8512   C.2       1 RES1   0.0000
    24 N24     -1.6757  -7.2326 -13.0391   N.3       1 RES1   0.0000
    25 C25     -1.5157 -11.6505 -13.3296   C.3       1 RES1   0.0000
    26 H26     -1.2731 -12.1875 -12.4138   H         1 RES1   0.0000
    27 H27     -0.9158 -12.0421 -14.1498   H         1 RES1   0.0000
    28 C28     -3.3794 -11.0765 -14.8623   C.3       1 RES1   0.0000
    29 H29     -2.8369 -11.4632 -15.7237   H         1 RES1   0.0000
    30 H30     -4.4492 -11.2073 -15.0184   H         1 RES1   0.0000
    31 C31     -3.0755  -9.5942 -14.7051   C.3       1 RES1   0.0000
    32 H32     -3.3218  -9.0798 -15.6328   H         1 RES1   0.0000
    33 H33     -3.6805  -9.1905 -13.8946   H         1 RES1   0.0000
    34 C34     -1.2144 -10.1735 -13.1438   C.3       1 RES1   0.0000
    35 H35     -1.7789  -9.8005 -12.2904   H         1 RES1   0.0000
    36 H36     -0.1489 -10.0492 -12.9566   H         1 RES1   0.0000
    37 N37     -2.9662 -11.8323 -13.6434   N.4       1 RES1   1.0000
    38 H38     -3.5147 -11.5051 -12.8545   H         1 RES1   0.0000
    39 H39     -3.1465 -12.8197 -13.7945   H         1 RES1   0.0000
    40 N40     -2.4741  -4.1759 -12.4060   N.ar      1 RES1   0.0000
    41 C41     -1.0710  -3.6820 -10.1479   C.ar      1 RES1   0.0000
    42 H42     -0.5068  -3.4933  -9.2404   H         1 RES1   0.0000
    43 N43     -3.8280  -2.4106 -11.8503   N.pl3     1 RES1   0.0000
    44 H44     -4.0844  -1.6755 -11.1914   H         1 RES1   0.0000
    45 C45     -0.6634  -4.7173 -10.9648   C.ar      1 RES1   0.0000
    46 H46      0.2002  -5.3270 -10.7208   H         1 RES1   0.0000
    47 C47     -2.7755  -3.1875 -11.5485   C.ar      1 RES1   0.0000
    48 N48     -2.1231  -2.8969 -10.4135   N.ar      1 RES1   0.0000
    49 C49     -4.6684  -2.5924 -13.0337   C.3       1 RES1   0.0000
    50 H50     -4.6894  -3.6630 -13.2899   H         1 RES1   0.0000
    51 C51     -4.1541  -1.8192 -14.2321   C.ar      1 RES1   0.0000
    52 C52     -6.0816  -2.1527 -12.6691   C.3       1 RES1   0.0000
    53 H53     -6.7446  -2.2327 -13.5280   H         1 RES1   0.0000
    54 H54     -6.4859  -2.7710 -11.8704   H         1 RES1   0.0000
    55 H55     -6.0872  -1.1181 -12.3325   H         1 RES1   0.0000
    56 C56     -3.2172  -0.3861 -16.4295   C.ar      1 RES1   0.0000
    57 H57     -2.8516   0.1721 -17.2850   H         1 RES1   0.0000
    58 C58     -4.5422  -0.5034 -14.4397   C.ar      1 RES1   0.0000
    59 H59     -5.2190  -0.0273 -13.7379   H         1 RES1   0.0000
    60 C60     -3.2899  -2.4063 -15.1461   C.ar      1 RES1   0.0000
    61 H61     -2.9740  -3.4346 -15.0057   H         1 RES1   0.0000
    62 C62     -2.8248  -1.6926 -16.2377   C.ar      1 RES1   0.0000
    63 H63     -2.1492  -2.1641 -16.9436   H         1 RES1   0.0000
    64 C64     -4.0755   0.2089 -15.5313   C.ar      1 RES1   0.0000
    65 H65     -4.3865   1.2377 -15.6792   H         1 RES1   0.0000
@<TRIPOS>BOND
     1     1     5   ar
     2     1     6   ar
     3     1     2    1
     4     3     8   ar
     5     3     9   ar
     6     3     4    1
     7     5     9   ar
     8     5    11    1
     9     6     8   ar
    10     6     7    1
    11     8    12    1
    12     9    10    1
    13    11    20    2
    14    11    23    1
    15    13    14    1
    16    13    23   am
    17    13    24    1
    18    14    31    1
    19    14    34    1
    20    14    15    1
    21    16    24    1
    22    16    17    1
    23    16    18    1
    24    16    19    1
    25    20    21    1
    26    20    24    1
    27    21    40   ar
    28    21    45   ar
    29    22    23    2
    30    25    34    1
    31    25    37    1
    32    25    26    1
    33    25    27    1
    34    28    31    1
    35    28    37    1
    36    28    29    1
    37    28    30    1
    38    31    32    1
    39    31    33    1
    40    34    35    1
    41    34    36    1
    42    37    38    1
    43    37    39    1
    44    40    47   ar
    45    41    45   ar
    46    41    48   ar
    47    41    42    1
    48    43    47    1
    49    43    49    1
    50    43    44    1
    51    45    46    1
    52    47    48   ar
    53    49    51    1
    54    49    52    1
    55    49    50    1
    56    51    58   ar
    57    51    60   ar
    58    52    53    1
    59    52    54    1
    60    52    55    1
    61    56    62   ar
    62    56    64   ar
    63    56    57    1
    64    58    64   ar
    65    58    59    1
    66    60    62   ar
    67    60    61    1
    68    62    63    1
    69    64    65    1
@<TRIPOS>SUBSTRUCTURE
     1 RES1        1 GROUP             0 ****  ****    0  
@<TRIPOS>MOLECULE
LIGAND_00258
    65    69     1     0     0
SMALL
USER_CHARGES
****
Generated from the CSD

@<TRIPOS>ATOM
     1 C1      -3.0637  -3.8289 -15.3624   C.ar      1 RES1   0.0000
     2 H2      -3.8877  -4.2454 -14.7932   H         1 RES1   0.0000
     3 C3      -0.9716  -2.7270 -16.7911   C.ar      1 RES1   0.0000
     4 H4      -0.1528  -2.2841 -17.3482   H         1 RES1   0.0000
     5 C5      -1.8413  -4.4938 -15.3832   C.ar      1 RES1   0.0000
     6 C6      -3.2493  -2.6421 -16.0490   C.ar      1 RES1   0.0000
     7 H7      -4.2088  -2.1360 -16.0347   H         1 RES1   0.0000
     8 C8      -2.1947  -2.1210 -16.7443   C.ar      1 RES1   0.0000
     9 C9      -0.8032  -3.9196 -16.1117   C.ar      1 RES1   0.0000
    10 H10      0.1600  -4.4151 -16.1545   H         1 RES1   0.0000
    11 C11     -1.6240  -5.7782 -14.6413   C.2       1 RES1   0.0000
    12 F12     -2.3685  -0.9512 -17.4175   F         1 RES1   0.0000
    13 N13     -1.2297  -7.9383 -14.1569   N.am      1 RES1   0.0000
    14 C14     -1.4873  -9.4110 -14.3030   C.3       1 RES1   0.0000
    15 H15     -1.2003  -9.7058 -15.3113   H         1 RES1   0.0000
    16 C16     -0.8692  -7.6868 -11.7804   C.3       1 RES1   0.0000
    17 H17     -1.4395  -8.4068 -11.1972   H         1 RES1   0.0000
    18 H18      0.0769  -8.1482 -12.0563   H         1 RES1   0.0000
    19 H19     -0.6562  -6.8287 -11.1464   H         1 RES1   0.0000
    20 C20     -1.7513  -5.9390 -13.3057   C.2       1 RES1   0.0000
    21 C21     -2.0254  -4.9138 -12.2663   C.ar      1 RES1   0.0000
    22 O22     -1.1900  -7.3970 -16.3897   O.2       1 RES1   0.0000
    23 C23     -1.3090  -7.0550 -15.2204   C.2       1 RES1   0.0000
    24 N24     -1.6145  -7.2774 -12.9713   N.3       1 RES1   0.0000
    25 C25     -0.8635 -11.7000 -13.4674   C.3       1 RES1   0.0000
    26 H26     -0.2769 -12.2349 -12.7219   H         1 RES1   0.0000
    27 H27     -0.5568 -12.0139 -14.4641   H         1 RES1   0.0000
    28 C28     -3.1822 -11.2634 -14.2323   C.3       1 RES1   0.0000
    29 H29     -2.9437 -11.5767 -15.2476   H         1 RES1   0.0000
    30 H30     -4.2259 -11.4889 -14.0184   H         1 RES1   0.0000
    31 C31     -2.9597  -9.7637 -14.1074   C.3       1 RES1   0.0000
    32 H32     -3.5521  -9.2515 -14.8641   H         1 RES1   0.0000
    33 H33     -3.2754  -9.4381 -13.1173   H         1 RES1   0.0000
    34 C34     -0.6332 -10.2065 -13.3150   C.3       1 RES1   0.0000
    35 H35     -0.8937  -9.9088 -12.3004   H         1 RES1   0.0000
    36 H36      0.4179  -9.9888 -13.4986   H         1 RES1   0.0000
    37 N37     -2.3138 -12.0077 -13.2734   N.4       1 RES1   1.0000
    38 H38     -2.5782 -11.7524 -12.3273   H         1 RES1   0.0000
    39 H39     -2.4573 -13.0034 -13.4077   H         1 RES1   0.0000
    40 N40     -1.5622  -3.6765 -12.5033   N.ar      1 RES1   0.0000
    41 C41     -2.8928  -4.1749 -10.2027   C.ar      1 RES1   0.0000
    42 H42     -3.4327  -4.3807  -9.2843   H         1 RES1   0.0000
    43 N43     -1.3003  -1.5147 -11.7849   N.pl3     1 RES1   0.0000
    44 H44     -0.7523  -1.3630 -12.6316   H         1 RES1   0.0000
    45 C45     -2.7132  -5.2096 -11.0985   C.ar      1 RES1   0.0000
    46 H46     -3.0900  -6.2069 -10.8971   H         1 RES1   0.0000
    47 C47     -1.7815  -2.7475 -11.5589   C.ar      1 RES1   0.0000
    48 N48     -2.4367  -2.9317 -10.4034   N.ar      1 RES1   0.0000
    49 C49     -1.4590  -0.3909 -10.8620   C.3       1 RES1   0.0000
    50 H50     -2.3723  -0.5492 -10.2677   H         1 RES1   0.0000
    51 C51     -1.5768   0.9372 -11.5836   C.ar      1 RES1   0.0000
    52 C52     -0.2605  -0.3932  -9.9203   C.3       1 RES1   0.0000
    53 H53     -0.3434   0.4070  -9.1878   H         1 RES1   0.0000
    54 H54     -0.1907  -1.3373  -9.3841   H         1 RES1   0.0000
    55 H55      0.6643  -0.2497 -10.4751   H         1 RES1   0.0000
    56 C56     -1.7837   3.3724 -12.9205   C.ar      1 RES1   0.0000
    57 H57     -1.8650   4.3207 -13.4414   H         1 RES1   0.0000
    58 C58     -0.8929   1.1559 -12.7708   C.ar      1 RES1   0.0000
    59 H59     -0.2698   0.3691 -13.1830   H         1 RES1   0.0000
    60 C60     -2.3648   1.9609 -11.0757   C.ar      1 RES1   0.0000
    61 H61     -2.9075   1.8138 -10.1478   H         1 RES1   0.0000
    62 C62     -2.4670   3.1707 -11.7415   C.ar      1 RES1   0.0000
    63 H63     -3.0872   3.9616 -11.3330   H         1 RES1   0.0000
    64 C64     -0.9969   2.3659 -13.4355   C.ar      1 RES1   0.0000
    65 H65     -0.4574   2.5213 -14.3639   H         1 RES1   0.0000
@<TRIPOS>BOND
     1     1     5   ar
     2     1     6   ar
     3     1     2    1
     4     3     8   ar
     5     3     9   ar
     6     3     4    1
     7     5     9   ar
     8     5    11    1
     9     6     8   ar
    10     6     7    1
    11     8    12    1
    12     9    10    1
    13    11    20    2
    14    11    23    1
    15    13    14    1
    16    13    23   am
    17    13    24    1
    18    14    31    1
    19    14    34    1
    20    14    15    1
    21    16    24    1
    22    16    17    1
    23    16    18    1
    24    16    19    1
    25    20    21    1
    26    20    24    1
    27    21    40   ar
    28    21    45   ar
    29    22    23    2
    30    25    34    1
    31    25    37    1
    32    25    26    1
    33    25    27    1
    34    28    31    1
    35    28    37    1
    36    28    29    1
    37    28    30    1
    38    31    32    1
    39    31    33    1
    40    34    35    1
    41    34    36    1
    42    37    38    1
    43    37    39    1
    44    40    47   ar
    45    41    45   ar
    46    41    48   ar
    47    41    42    1
    48    43    47    1
    49    43    49    1
    50    43    44    1
    51    45    46    1
    52    47    48   ar
    53    49    51    1
    54    49    52    1
    55    49    50    1
    56    51    58   ar
    57    51    60   ar
    58    52    53    1
    59    52    54    1
    60    52    55    1
    61    56    62   ar
    62    56    64   ar
    63    56    57    1
    64    58    64   ar
    65    58    59    1
    66    60    62   ar
    67    60    61    1
    68    62    63    1
    69    64    65    1
@<TRIPOS>SUBSTRUCTURE
     1 RES1        1 GROUP             0 ****  ****    0  
@<TRIPOS>MOLECULE
LIGAND_00259
    65    69     1     0     0
SMALL
USER_CHARGES
****
Generated from the CSD

@<TRIPOS>ATOM
     1 C1      -3.0945  -3.8443 -15.3600   C.ar      1 RES1   0.0000
     2 H2      -3.9124  -4.2673 -14.7868   H         1 RES1   0.0000
     3 C3      -1.0184  -2.7261 -16.7992   C.ar      1 RES1   0.0000
     4 H4      -0.2058  -2.2768 -17.3606   H         1 RES1   0.0000
     5 C5      -1.8664  -4.4985 -15.3853   C.ar      1 RES1   0.0000
     6 C6      -3.2935  -2.6602 -16.0475   C.ar      1 RES1   0.0000
     7 H7      -4.2574  -2.1625 -16.0298   H         1 RES1   0.0000
     8 C8      -2.2465  -2.1308 -16.7481   C.ar      1 RES1   0.0000
     9 C9      -0.8366  -3.9162 -16.1189   C.ar      1 RES1   0.0000
    10 H10      0.1308  -4.4033 -16.1653   H         1 RES1   0.0000
    11 C11     -1.6346  -5.7798 -14.6425   C.2       1 RES1   0.0000
    12 F12     -2.4335  -0.9636 -17.4222   F         1 RES1   0.0000
    13 N13     -1.2214  -7.9361 -14.1568   N.am      1 RES1   0.0000
    14 C14     -1.4694  -9.4109 -14.2983   C.3       1 RES1   0.0000
    15 H15     -1.1871  -9.7056 -15.3080   H         1 RES1   0.0000
    16 C16     -0.8458  -7.6775 -11.7835   C.3       1 RES1   0.0000
    17 H17     -1.4071  -8.3999 -11.1944   H         1 RES1   0.0000
    18 H18      0.1012  -8.1333 -12.0652   H         1 RES1   0.0000
    19 H19     -0.6339  -6.8166 -11.1530   H         1 RES1   0.0000
    20 C20     -1.7513  -5.9390 -13.3057   C.2       1 RES1   0.0000
    21 C21     -2.0254  -4.9138 -12.2663   C.ar      1 RES1   0.0000
    22 O22     -1.2014  -7.3989 -16.3909   O.2       1 RES1   0.0000
    23 C23     -1.3146  -7.0554 -15.2214   C.2       1 RES1   0.0000
    24 N24     -1.6026  -7.2757 -12.9697   N.3       1 RES1   0.0000
    25 C25     -0.8236 -11.6938 -13.4625   C.3       1 RES1   0.0000
    26 H26     -0.2283 -12.2229 -12.7199   H         1 RES1   0.0000
    27 H27     -0.5214 -12.0074 -14.4606   H         1 RES1   0.0000
    28 C28     -3.1505 -11.2752 -14.2127   C.3       1 RES1   0.0000
    29 H29     -2.9166 -11.5888 -15.2290   H         1 RES1   0.0000
    30 H30     -4.1911 -11.5077 -13.9914   H         1 RES1   0.0000
    31 C31     -2.9379  -9.7737 -14.0922   C.3       1 RES1   0.0000
    32 H32     -3.5390  -9.2673 -14.8459   H         1 RES1   0.0000
    33 H33     -3.2493  -9.4484 -13.1007   H         1 RES1   0.0000
    34 C34     -0.6030 -10.1984 -13.3146   C.3       1 RES1   0.0000
    35 H35     -0.8589  -9.9005 -12.2988   H         1 RES1   0.0000
    36 H36      0.4452  -9.9735 -13.5057   H         1 RES1   0.0000
    37 N37     -2.2704 -12.0114 -13.2582   N.4       1 RES1   1.0000
    38 H38     -2.5303 -11.7561 -12.3108   H         1 RES1   0.0000
    39 H39     -2.4077 -13.0084 -13.3896   H         1 RES1   0.0000
    40 N40     -1.5622  -3.6765 -12.5033   N.ar      1 RES1   0.0000
    41 C41     -2.8928  -4.1749 -10.2027   C.ar      1 RES1   0.0000
    42 H42     -3.4327  -4.3807  -9.2843   H         1 RES1   0.0000
    43 N43     -1.3003  -1.5147 -11.7849   N.pl3     1 RES1   0.0000
    44 H44     -1.5032  -0.7887 -11.0977   H         1 RES1   0.0000
    45 C45     -2.7132  -5.2096 -11.0985   C.ar      1 RES1   0.0000
    46 H46     -3.0900  -6.2069 -10.8971   H         1 RES1   0.0000
    47 C47     -1.7815  -2.7475 -11.5589   C.ar      1 RES1   0.0000
    48 N48     -2.4367  -2.9317 -10.4034   N.ar      1 RES1   0.0000
    49 C49     -0.5570  -1.1322 -12.9852   C.3       1 RES1   0.0000
    50 H50     -0.0636  -2.0274 -13.3945   H         1 RES1   0.0000
    51 C51      0.5019  -0.0853 -12.7002   C.ar      1 RES1   0.0000
    52 C52     -1.5638  -0.6219 -14.0094   C.3       1 RES1   0.0000
    53 H53     -1.1222  -0.5917 -15.0033   H         1 RES1   0.0000
    54 H54     -2.4392  -1.2669 -14.0471   H         1 RES1   0.0000
    55 H55     -1.8944   0.3831 -13.7554   H         1 RES1   0.0000
    56 C56      2.4385   1.8445 -12.1655   C.ar      1 RES1   0.0000
    57 H57      3.1932   2.5956 -11.9569   H         1 RES1   0.0000
    58 C58      0.2946   0.8769 -11.7224   C.ar      1 RES1   0.0000
    59 H59     -0.6331   0.8779 -11.1597   H         1 RES1   0.0000
    60 C60      1.6958  -0.0629 -13.4080   C.ar      1 RES1   0.0000
    61 H61      1.8796  -0.8041 -14.1787   H         1 RES1   0.0000
    62 C62      2.6576   0.8967 -13.1409   C.ar      1 RES1   0.0000
    63 H63      3.5864   0.9016 -13.7017   H         1 RES1   0.0000
    64 C64      1.2578   1.8352 -11.4561   C.ar      1 RES1   0.0000
    65 H65      1.0819   2.5800 -10.6872   H         1 RES1   0.0000
@<TRIPOS>BOND
     1     1     5   ar
     2     1     6   ar
     3     1     2    1
     4     3     8   ar
     5     3     9   ar
     6     3     4    1
     7     5     9   ar
     8     5    11    1
     9     6     8   ar
    10     6     7    1
    11     8    12    1
    12     9    10    1
    13    11    20    2
    14    11    23    1
    15    13    14    1
    16    13    23   am
    17    13    24    1
    18    14    31    1
    19    14    34    1
    20    14    15    1
    21    16    24    1
    22    16    17    1
    23    16    18    1
    24    16    19    1
    25    20    21    1
    26    20    24    1
    27    21    40   ar
    28    21    45   ar
    29    22    23    2
    30    25    34    1
    31    25    37    1
    32    25    26    1
    33    25    27    1
    34    28    31    1
    35    28    37    1
    36    28    29    1
    37    28    30    1
    38    31    32    1
    39    31    33    1
    40    34    35    1
    41    34    36    1
    42    37    38    1
    43    37    39    1
    44    40    47   ar
    45    41    45   ar
    46    41    48   ar
    47    41    42    1
    48    43    47    1
    49    43    49    1
    50    43    44    1
    51    45    46    1
    52    47    48   ar
    53    49    51    1
    54    49    52    1
    55    49    50    1
    56    51    58   ar
    57    51    60   ar
    58    52    53    1
    59    52    54    1
    60    52    55    1
    61    56    62   ar
    62    56    64   ar
    63    56    57    1
    64    58    64   ar
    65    58    59    1
    66    60    62   ar
    67    60    61    1
    68    62    63    1
    69    64    65    1
@<TRIPOS>SUBSTRUCTURE
     1 RES1        1 GROUP             0 ****  ****    0  
@<TRIPOS>MOLECULE
LIGAND_00260
    65    69     1     0     0
SMALL
USER_CHARGES
****
Generated from the CSD

@<TRIPOS>ATOM
     1 C1       0.2573  -3.9669 -12.3516   C.ar      1 RES1   0.0000
     2 H2       1.1798  -4.3864 -12.7383   H         1 RES1   0.0000
     3 C3      -2.0803  -2.8572 -11.3842   C.ar      1 RES1   0.0000
     4 H4      -2.9947  -2.4111 -11.0072   H         1 RES1   0.0000
     5 C5      -0.9499  -4.6055 -12.6192   C.ar      1 RES1   0.0000
     6 C6       0.3058  -2.8025 -11.6058   C.ar      1 RES1   0.0000
     7 H7       1.2527  -2.3171 -11.3943   H         1 RES1   0.0000
     8 C8      -0.8677  -2.2768 -11.1435   C.ar      1 RES1   0.0000
     9 C9      -2.1137  -4.0280 -12.1193   C.ar      1 RES1   0.0000
    10 H10     -3.0703  -4.5034 -12.3035   H         1 RES1   0.0000
    11 C11     -1.0186  -5.8654 -13.4287   C.2       1 RES1   0.0000
    12 F12     -0.8281  -1.1287 -10.4140   F         1 RES1   0.0000
    13 N13     -1.3461  -7.9194 -14.2137   N.am      1 RES1   0.0000
    14 C14     -1.7558  -9.3491 -14.4253   C.3       1 RES1   0.0000
    15 H15     -1.4865  -9.6307 -15.4422   H         1 RES1   0.0000
    16 C16     -0.6690  -7.5592 -16.6198   C.3       1 RES1   0.0000
    17 H17      0.0867  -6.9795 -17.1459   H         1 RES1   0.0000
    18 H18     -0.3990  -8.6108 -16.6909   H         1 RES1   0.0000
    19 H19     -1.6203  -7.4179 -17.1284   H         1 RES1   0.0000
    20 C20     -0.5870  -5.9122 -14.7311   C.2       1 RES1   0.0000
    21 C21      0.0604  -4.8376 -15.5265   C.ar      1 RES1   0.0000
    22 O22     -1.9962  -7.6129 -12.0746   O.2       1 RES1   0.0000
    23 C23     -1.5042  -7.1661 -13.1026   C.2       1 RES1   0.0000
    24 N24     -0.7634  -7.1401 -15.2210   N.pl3     1 RES1   0.0000
    25 C25     -1.3901 -11.7241 -13.6818   C.3       1 RES1   0.0000
    26 H26     -0.8746 -12.3486 -12.9537   H         1 RES1   0.0000
    27 H27     -1.1035 -12.0273 -14.6877   H         1 RES1   0.0000
    28 C28     -3.6379 -11.0122 -14.4516   C.3       1 RES1   0.0000
    29 H29     -3.4188 -11.3068 -15.4769   H         1 RES1   0.0000
    30 H30     -4.7027 -11.1341 -14.2585   H         1 RES1   0.0000
    31 C31     -3.2600  -9.5511 -14.2604   C.3       1 RES1   0.0000
    32 H32     -3.7836  -8.9479 -15.0007   H         1 RES1   0.0000
    33 H33     -3.5543  -9.2349 -13.2607   H         1 RES1   0.0000
    34 C34     -1.0055 -10.2711 -13.4633   C.3       1 RES1   0.0000
    35 H35     -1.2482  -9.9896 -12.4397   H         1 RES1   0.0000
    36 H36      0.0654 -10.1589 -13.6265   H         1 RES1   0.0000
    37 N37     -2.8676 -11.8836 -13.5163   N.4       1 RES1   1.0000
    38 H38     -3.1176 -11.6409 -12.5630   H         1 RES1   0.0000
    39 H39     -3.1136 -12.8520 -13.6946   H         1 RES1   0.0000
    40 N40      1.0505  -5.2120 -16.3517   N.ar      1 RES1   0.0000
    41 C41      0.3664  -2.6002 -16.2028   C.ar      1 RES1   0.0000
    42 H42      0.0825  -1.5547 -16.1423   H         1 RES1   0.0000
    43 N43      2.6654  -4.6157 -17.8667   N.pl3     1 RES1   0.0000
    44 H44      2.9448  -5.5966 -17.8646   H         1 RES1   0.0000
    45 C45     -0.3206  -3.5078 -15.4220   C.ar      1 RES1   0.0000
    46 H46     -1.1186  -3.1952 -14.7566   H         1 RES1   0.0000
    47 C47      1.6606  -4.2456 -17.0567   C.ar      1 RES1   0.0000
    48 N48      1.3642  -2.9380 -17.0297   N.ar      1 RES1   0.0000
    49 C49      3.4261  -3.6893 -18.7049   C.3       1 RES1   0.0000
    50 H50      2.7882  -2.8238 -18.9423   H         1 RES1   0.0000
    51 C51      3.8800  -4.3252 -20.0042   C.ar      1 RES1   0.0000
    52 C52      4.6201  -3.2037 -17.8915   C.3       1 RES1   0.0000
    53 H53      5.2061  -2.4831 -18.4581   H         1 RES1   0.0000
    54 H54      4.2930  -2.7251 -16.9708   H         1 RES1   0.0000
    55 H55      5.2697  -4.0359 -17.6283   H         1 RES1   0.0000
    56 C56      4.7154  -5.5072 -22.3844   C.ar      1 RES1   0.0000
    57 H57      5.0401  -5.9676 -23.3116   H         1 RES1   0.0000
    58 C58      4.2091  -5.6722 -20.0508   C.ar      1 RES1   0.0000
    59 H59      4.1407  -6.2720 -19.1493   H         1 RES1   0.0000
    60 C60      3.9789  -3.5791 -21.1706   C.ar      1 RES1   0.0000
    61 H61      3.7285  -2.5235 -21.1582   H         1 RES1   0.0000
    62 C62      4.3939  -4.1681 -22.3530   C.ar      1 RES1   0.0000
    63 H63      4.4659  -3.5727 -23.2571   H         1 RES1   0.0000
    64 C64      4.6232  -6.2596 -21.2342   C.ar      1 RES1   0.0000
    65 H65      4.8755  -7.3146 -21.2553   H         1 RES1   0.0000
@<TRIPOS>BOND
     1     1     5   ar
     2     1     6   ar
     3     1     2    1
     4     3     8   ar
     5     3     9   ar
     6     3     4    1
     7     5     9   ar
     8     5    11    1
     9     6     8   ar
    10     6     7    1
    11     8    12    1
    12     9    10    1
    13    11    20    2
    14    11    23    1
    15    13    14    1
    16    13    23   am
    17    13    24    1
    18    14    31    1
    19    14    34    1
    20    14    15    1
    21    16    24    1
    22    16    17    1
    23    16    18    1
    24    16    19    1
    25    20    21    1
    26    20    24    1
    27    21    40   ar
    28    21    45   ar
    29    22    23    2
    30    25    34    1
    31    25    37    1
    32    25    26    1
    33    25    27    1
    34    28    31    1
    35    28    37    1
    36    28    29    1
    37    28    30    1
    38    31    32    1
    39    31    33    1
    40    34    35    1
    41    34    36    1
    42    37    38    1
    43    37    39    1
    44    40    47   ar
    45    41    45   ar
    46    41    48   ar
    47    41    42    1
    48    43    47    1
    49    43    49    1
    50    43    44    1
    51    45    46    1
    52    47    48   ar
    53    49    51    1
    54    49    52    1
    55    49    50    1
    56    51    58   ar
    57    51    60   ar
    58    52    53    1
    59    52    54    1
    60    52    55    1
    61    56    62   ar
    62    56    64   ar
    63    56    57    1
    64    58    64   ar
    65    58    59    1
    66    60    62   ar
    67    60    61    1
    68    62    63    1
    69    64    65    1
@<TRIPOS>SUBSTRUCTURE
     1 RES1        1 GROUP             0 ****  ****    0  
@<TRIPOS>MOLECULE
LIGAND_00261
    65    69     1     0     0
SMALL
USER_CHARGES
****
Generated from the CSD

@<TRIPOS>ATOM
     1 C1       0.2573  -3.9669 -12.3516   C.ar      1 RES1   0.0000
     2 H2       1.1798  -4.3864 -12.7383   H         1 RES1   0.0000
     3 C3      -2.0803  -2.8572 -11.3842   C.ar      1 RES1   0.0000
     4 H4      -2.9946  -2.4110 -11.0072   H         1 RES1   0.0000
     5 C5      -0.9499  -4.6055 -12.6192   C.ar      1 RES1   0.0000
     6 C6       0.3059  -2.8025 -11.6058   C.ar      1 RES1   0.0000
     7 H7       1.2527  -2.3171 -11.3942   H         1 RES1   0.0000
     8 C8      -0.8677  -2.2768 -11.1435   C.ar      1 RES1   0.0000
     9 C9      -2.1136  -4.0279 -12.1193   C.ar      1 RES1   0.0000
    10 H10     -3.0703  -4.5034 -12.3036   H         1 RES1   0.0000
    11 C11     -1.0186  -5.8654 -13.4287   C.2       1 RES1   0.0000
    12 F12     -0.8280  -1.1287 -10.4140   F         1 RES1   0.0000
    13 N13     -1.3461  -7.9194 -14.2137   N.am      1 RES1   0.0000
    14 C14     -1.7558  -9.3491 -14.4253   C.3       1 RES1   0.0000
    15 H15     -1.4865  -9.6307 -15.4422   H         1 RES1   0.0000
    16 C16     -0.6690  -7.5592 -16.6198   C.3       1 RES1   0.0000
    17 H17      0.0867  -6.9795 -17.1459   H         1 RES1   0.0000
    18 H18     -0.3990  -8.6108 -16.6909   H         1 RES1   0.0000
    19 H19     -1.6203  -7.4179 -17.1284   H         1 RES1   0.0000
    20 C20     -0.5870  -5.9122 -14.7311   C.2       1 RES1   0.0000
    21 C21      0.0604  -4.8376 -15.5265   C.ar      1 RES1   0.0000
    22 O22     -1.9962  -7.6129 -12.0746   O.2       1 RES1   0.0000
    23 C23     -1.5042  -7.1661 -13.1026   C.2       1 RES1   0.0000
    24 N24     -0.7634  -7.1401 -15.2210   N.pl3     1 RES1   0.0000
    25 C25     -1.3902 -11.7241 -13.6818   C.3       1 RES1   0.0000
    26 H26     -0.8747 -12.3486 -12.9537   H         1 RES1   0.0000
    27 H27     -1.1036 -12.0273 -14.6877   H         1 RES1   0.0000
    28 C28     -3.6379 -11.0121 -14.4516   C.3       1 RES1   0.0000
    29 H29     -3.4188 -11.3068 -15.4769   H         1 RES1   0.0000
    30 H30     -4.7027 -11.1341 -14.2586   H         1 RES1   0.0000
    31 C31     -3.2600  -9.5511 -14.2604   C.3       1 RES1   0.0000
    32 H32     -3.7835  -8.9479 -15.0007   H         1 RES1   0.0000
    33 H33     -3.5543  -9.2349 -13.2608   H         1 RES1   0.0000
    34 C34     -1.0055 -10.2711 -13.4633   C.3       1 RES1   0.0000
    35 H35     -1.2483  -9.9896 -12.4397   H         1 RES1   0.0000
    36 H36      0.0653 -10.1589 -13.6264   H         1 RES1   0.0000
    37 N37     -2.8676 -11.8836 -13.5163   N.4       1 RES1   1.0000
    38 H38     -3.1177 -11.6409 -12.5630   H         1 RES1   0.0000
    39 H39     -3.1137 -12.8520 -13.6946   H         1 RES1   0.0000
    40 N40      1.0505  -5.2120 -16.3517   N.ar      1 RES1   0.0000
    41 C41      0.3664  -2.6002 -16.2028   C.ar      1 RES1   0.0000
    42 H42      0.0825  -1.5547 -16.1423   H         1 RES1   0.0000
    43 N43      2.6654  -4.6157 -17.8667   N.pl3     1 RES1   0.0000
    44 H44      3.1028  -3.8981 -18.4446   H         1 RES1   0.0000
    45 C45     -0.3206  -3.5078 -15.4220   C.ar      1 RES1   0.0000
    46 H46     -1.1186  -3.1952 -14.7566   H         1 RES1   0.0000
    47 C47      1.6606  -4.2456 -17.0567   C.ar      1 RES1   0.0000
    48 N48      1.3642  -2.9380 -17.0297   N.ar      1 RES1   0.0000
    49 C49      3.1301  -5.9942 -18.0189   C.3       1 RES1   0.0000
    50 H50      2.9065  -6.5459 -17.0927   H         1 RES1   0.0000
    51 C51      4.6211  -6.0759 -18.2814   C.ar      1 RES1   0.0000
    52 C52      2.3420  -6.6243 -19.1614   C.3       1 RES1   0.0000
    53 H53      2.6259  -7.6656 -19.2982   H         1 RES1   0.0000
    54 H54      1.2732  -6.5879 -18.9612   H         1 RES1   0.0000
    55 H55      2.5300  -6.0970 -20.0943   H         1 RES1   0.0000
    56 C56      7.3600  -6.2124 -18.7714   C.ar      1 RES1   0.0000
    57 H57      8.4268  -6.2653 -18.9616   H         1 RES1   0.0000
    58 C58      5.2627  -5.0837 -19.0086   C.ar      1 RES1   0.0000
    59 H59      4.6906  -4.2449 -19.3914   H         1 RES1   0.0000
    60 C60      5.3750  -7.1398 -17.8055   C.ar      1 RES1   0.0000
    61 H61      4.8949  -7.9285 -17.2358   H         1 RES1   0.0000
    62 C62      6.7364  -7.2062 -18.0495   C.ar      1 RES1   0.0000
    63 H63      7.3130  -8.0434 -17.6707   H         1 RES1   0.0000
    64 C64      6.6241  -5.1513 -19.2510   C.ar      1 RES1   0.0000
    65 H65      7.1120  -4.3668 -19.8199   H         1 RES1   0.0000
@<TRIPOS>BOND
     1     1     5   ar
     2     1     6   ar
     3     1     2    1
     4     3     8   ar
     5     3     9   ar
     6     3     4    1
     7     5     9   ar
     8     5    11    1
     9     6     8   ar
    10     6     7    1
    11     8    12    1
    12     9    10    1
    13    11    20    2
    14    11    23    1
    15    13    14    1
    16    13    23   am
    17    13    24    1
    18    14    31    1
    19    14    34    1
    20    14    15    1
    21    16    24    1
    22    16    17    1
    23    16    18    1
    24    16    19    1
    25    20    21    1
    26    20    24    1
    27    21    40   ar
    28    21    45   ar
    29    22    23    2
    30    25    34    1
    31    25    37    1
    32    25    26    1
    33    25    27    1
    34    28    31    1
    35    28    37    1
    36    28    29    1
    37    28    30    1
    38    31    32    1
    39    31    33    1
    40    34    35    1
    41    34    36    1
    42    37    38    1
    43    37    39    1
    44    40    47   ar
    45    41    45   ar
    46    41    48   ar
    47    41    42    1
    48    43    47    1
    49    43    49    1
    50    43    44    1
    51    45    46    1
    52    47    48   ar
    53    49    51    1
    54    49    52    1
    55    49    50    1
    56    51    58   ar
    57    51    60   ar
    58    52    53    1
    59    52    54    1
    60    52    55    1
    61    56    62   ar
    62    56    64   ar
    63    56    57    1
    64    58    64   ar
    65    58    59    1
    66    60    62   ar
    67    60    61    1
    68    62    63    1
    69    64    65    1
@<TRIPOS>SUBSTRUCTURE
     1 RES1        1 GROUP             0 ****  ****    0  
@<TRIPOS>MOLECULE
LIGAND_00262
    65    69     1     0     0
SMALL
USER_CHARGES
****
Generated from the CSD

@<TRIPOS>ATOM
     1 C1      -1.0028  -4.1809 -11.6136   C.ar      1 RES1   0.0000
     2 H2      -0.4315  -4.9296 -11.0756   H         1 RES1   0.0000
     3 C3      -2.4243  -2.2429 -12.9758   C.ar      1 RES1   0.0000
     4 H4      -2.9751  -1.4740 -13.5074   H         1 RES1   0.0000
     5 C5      -1.4914  -4.4747 -12.8831   C.ar      1 RES1   0.0000
     6 C6      -1.2257  -2.9492 -11.0238   C.ar      1 RES1   0.0000
     7 H7      -0.8490  -2.7328 -10.0297   H         1 RES1   0.0000
     8 C8      -1.9301  -2.0107 -11.7240   C.ar      1 RES1   0.0000
     9 C9      -2.2062  -3.4826 -13.5484   C.ar      1 RES1   0.0000
    10 H10     -2.6067  -3.6808 -14.5360   H         1 RES1   0.0000
    11 C11     -1.2548  -5.8030 -13.5365   C.2       1 RES1   0.0000
    12 F12     -2.1484  -0.7952 -11.1523   F         1 RES1   0.0000
    13 N13     -1.1780  -7.9481 -14.1156   N.am      1 RES1   0.0000
    14 C14     -1.3637  -9.4349 -14.2222   C.3       1 RES1   0.0000
    15 H15     -0.8816  -9.7708 -15.1390   H         1 RES1   0.0000
    16 C16     -0.1161  -7.7267 -16.3962   C.3       1 RES1   0.0000
    17 H17      0.7220  -7.1633 -16.8012   H         1 RES1   0.0000
    18 H18      0.1860  -8.7685 -16.3108   H         1 RES1   0.0000
    19 H19     -0.9387  -7.6689 -17.1058   H         1 RES1   0.0000
    20 C20     -0.5870  -5.9122 -14.7311   C.2       1 RES1   0.0000
    21 C21      0.0604  -4.8376 -15.5265   C.ar      1 RES1   0.0000
    22 O22     -2.2454  -7.5340 -12.1709   O.2       1 RES1   0.0000
    23 C23     -1.6299  -7.1222 -13.1456   C.2       1 RES1   0.0000
    24 N24     -0.5184  -7.1938 -15.0941   N.pl3     1 RES1   0.0000
    25 C25     -0.8508 -11.6528 -13.1522   C.3       1 RES1   0.0000
    26 H26     -0.4036 -12.1261 -12.2794   H         1 RES1   0.0000
    27 H27     -0.3510 -12.0064 -14.0529   H         1 RES1   0.0000
    28 C28     -2.9912 -11.3427 -14.3665   C.3       1 RES1   0.0000
    29 H29     -2.5549 -11.6992 -15.2984   H         1 RES1   0.0000
    30 H30     -4.0502 -11.5953 -14.3415   H         1 RES1   0.0000
    31 C31     -2.8365  -9.8313 -14.2889   C.3       1 RES1   0.0000
    32 H32     -3.2867  -9.3814 -15.1725   H         1 RES1   0.0000
    33 H33     -3.3442  -9.4667 -13.3972   H         1 RES1   0.0000
    34 C34     -0.6935 -10.1459 -13.0459   C.3       1 RES1   0.0000
    35 H35     -1.1510  -9.8058 -12.1180   H         1 RES1   0.0000
    36 H36      0.3671  -9.8991 -13.0394   H         1 RES1   0.0000
    37 N37     -2.3027 -12.0035 -13.2189   N.4       1 RES1   1.0000
    38 H38     -2.7498 -11.7094 -12.3564   H         1 RES1   0.0000
    39 H39     -2.3915 -13.0095 -13.3201   H         1 RES1   0.0000
    40 N40     -0.0039  -4.9545 -16.8621   N.ar      1 RES1   0.0000
    41 C41      1.2879  -2.8409 -15.7779   C.ar      1 RES1   0.0000
    42 H42      1.7995  -1.9922 -15.3360   H         1 RES1   0.0000
    43 N43      0.5551  -4.1295 -18.9273   N.pl3     1 RES1   0.0000
    44 H44      0.1131  -4.9635 -19.3138   H         1 RES1   0.0000
    45 C45      0.7132  -3.7678 -14.9318   C.ar      1 RES1   0.0000
    46 H46      0.7719  -3.6654 -13.8533   H         1 RES1   0.0000
    47 C47      0.6002  -4.0026 -17.5915   C.ar      1 RES1   0.0000
    48 N48      1.2501  -2.9313 -17.1136   N.ar      1 RES1   0.0000
    49 C49      1.1555  -3.1777 -19.8618   C.3       1 RES1   0.0000
    50 H50      1.1918  -2.1875 -19.3816   H         1 RES1   0.0000
    51 C51      0.3684  -3.0598 -21.1521   C.ar      1 RES1   0.0000
    52 C52      2.5828  -3.6369 -20.1360   C.3       1 RES1   0.0000
    53 H53      3.0900  -2.9436 -20.8036   H         1 RES1   0.0000
    54 H54      3.1547  -3.6974 -19.2124   H         1 RES1   0.0000
    55 H55      2.5873  -4.6200 -20.6020   H         1 RES1   0.0000
    56 C56     -1.0818  -2.8583 -23.5221   C.ar      1 RES1   0.0000
    57 H57     -1.6471  -2.7794 -24.4447   H         1 RES1   0.0000
    58 C58     -0.2953  -4.1606 -21.6743   C.ar      1 RES1   0.0000
    59 H59     -0.2485  -5.1113 -21.1535   H         1 RES1   0.0000
    60 C60      0.2954  -1.8559 -21.8392   C.ar      1 RES1   0.0000
    61 H61      0.8077  -0.9818 -21.4512   H         1 RES1   0.0000
    62 C62     -0.4261  -1.7571 -23.0169   C.ar      1 RES1   0.0000
    63 H63     -0.4749  -0.8095 -23.5429   H         1 RES1   0.0000
    64 C64     -1.0169  -4.0598 -22.8516   C.ar      1 RES1   0.0000
    65 H65     -1.5322  -4.9291 -23.2465   H         1 RES1   0.0000
@<TRIPOS>BOND
     1     1     5   ar
     2     1     6   ar
     3     1     2    1
     4     3     8   ar
     5     3     9   ar
     6     3     4    1
     7     5     9   ar
     8     5    11    1
     9     6     8   ar
    10     6     7    1
    11     8    12    1
    12     9    10    1
    13    11    20    2
    14    11    23    1
    15    13    14    1
    16    13    23   am
    17    13    24    1
    18    14    31    1
    19    14    34    1
    20    14    15    1
    21    16    24    1
    22    16    17    1
    23    16    18    1
    24    16    19    1
    25    20    21    1
    26    20    24    1
    27    21    40   ar
    28    21    45   ar
    29    22    23    2
    30    25    34    1
    31    25    37    1
    32    25    26    1
    33    25    27    1
    34    28    31    1
    35    28    37    1
    36    28    29    1
    37    28    30    1
    38    31    32    1
    39    31    33    1
    40    34    35    1
    41    34    36    1
    42    37    38    1
    43    37    39    1
    44    40    47   ar
    45    41    45   ar
    46    41    48   ar
    47    41    42    1
    48    43    47    1
    49    43    49    1
    50    43    44    1
    51    45    46    1
    52    47    48   ar
    53    49    51    1
    54    49    52    1
    55    49    50    1
    56    51    58   ar
    57    51    60   ar
    58    52    53    1
    59    52    54    1
    60    52    55    1
    61    56    62   ar
    62    56    64   ar
    63    56    57    1
    64    58    64   ar
    65    58    59    1
    66    60    62   ar
    67    60    61    1
    68    62    63    1
    69    64    65    1
@<TRIPOS>SUBSTRUCTURE
     1 RES1        1 GROUP             0 ****  ****    0  
@<TRIPOS>MOLECULE
LIGAND_00263
    65    69     1     0     0
SMALL
USER_CHARGES
****
Generated from the CSD

@<TRIPOS>ATOM
     1 C1      -1.0027  -4.1809 -11.6136   C.ar      1 RES1   0.0000
     2 H2      -0.4314  -4.9296 -11.0756   H         1 RES1   0.0000
     3 C3      -2.4243  -2.2429 -12.9757   C.ar      1 RES1   0.0000
     4 H4      -2.9751  -1.4740 -13.5073   H         1 RES1   0.0000
     5 C5      -1.4914  -4.4747 -12.8831   C.ar      1 RES1   0.0000
     6 C6      -1.2257  -2.9492 -11.0238   C.ar      1 RES1   0.0000
     7 H7      -0.8489  -2.7328 -10.0297   H         1 RES1   0.0000
     8 C8      -1.9300  -2.0107 -11.7239   C.ar      1 RES1   0.0000
     9 C9      -2.2062  -3.4826 -13.5484   C.ar      1 RES1   0.0000
    10 H10     -2.6068  -3.6809 -14.5360   H         1 RES1   0.0000
    11 C11     -1.2548  -5.8030 -13.5365   C.2       1 RES1   0.0000
    12 F12     -2.1484  -0.7952 -11.1522   F         1 RES1   0.0000
    13 N13     -1.1780  -7.9481 -14.1156   N.am      1 RES1   0.0000
    14 C14     -1.3638  -9.4349 -14.2222   C.3       1 RES1   0.0000
    15 H15     -0.8816  -9.7708 -15.1391   H         1 RES1   0.0000
    16 C16     -0.1161  -7.7267 -16.3962   C.3       1 RES1   0.0000
    17 H17      0.7220  -7.1633 -16.8012   H         1 RES1   0.0000
    18 H18      0.1859  -8.7685 -16.3109   H         1 RES1   0.0000
    19 H19     -0.9388  -7.6689 -17.1058   H         1 RES1   0.0000
    20 C20     -0.5870  -5.9122 -14.7311   C.2       1 RES1   0.0000
    21 C21      0.0604  -4.8376 -15.5265   C.ar      1 RES1   0.0000
    22 O22     -2.2454  -7.5340 -12.1709   O.2       1 RES1   0.0000
    23 C23     -1.6299  -7.1222 -13.1456   C.2       1 RES1   0.0000
    24 N24     -0.5184  -7.1938 -15.0941   N.pl3     1 RES1   0.0000
    25 C25     -0.8508 -11.6528 -13.1523   C.3       1 RES1   0.0000
    26 H26     -0.4036 -12.1261 -12.2794   H         1 RES1   0.0000
    27 H27     -0.3511 -12.0064 -14.0529   H         1 RES1   0.0000
    28 C28     -2.9912 -11.3427 -14.3665   C.3       1 RES1   0.0000
    29 H29     -2.5549 -11.6992 -15.2984   H         1 RES1   0.0000
    30 H30     -4.0502 -11.5953 -14.3415   H         1 RES1   0.0000
    31 C31     -2.8365  -9.8313 -14.2889   C.3       1 RES1   0.0000
    32 H32     -3.2868  -9.3814 -15.1725   H         1 RES1   0.0000
    33 H33     -3.3443  -9.4666 -13.3972   H         1 RES1   0.0000
    34 C34     -0.6935 -10.1459 -13.0459   C.3       1 RES1   0.0000
    35 H35     -1.1510  -9.8058 -12.1180   H         1 RES1   0.0000
    36 H36      0.3671  -9.8991 -13.0394   H         1 RES1   0.0000
    37 N37     -2.3028 -12.0035 -13.2189   N.4       1 RES1   1.0000
    38 H38     -2.7498 -11.7094 -12.3565   H         1 RES1   0.0000
    39 H39     -2.3916 -13.0095 -13.3201   H         1 RES1   0.0000
    40 N40     -0.0039  -4.9545 -16.8621   N.ar      1 RES1   0.0000
    41 C41      1.2879  -2.8409 -15.7779   C.ar      1 RES1   0.0000
    42 H42      1.7995  -1.9922 -15.3360   H         1 RES1   0.0000
    43 N43      0.5551  -4.1295 -18.9273   N.pl3     1 RES1   0.0000
    44 H44      0.9663  -3.3866 -19.4924   H         1 RES1   0.0000
    45 C45      0.7132  -3.7678 -14.9318   C.ar      1 RES1   0.0000
    46 H46      0.7719  -3.6654 -13.8533   H         1 RES1   0.0000
    47 C47      0.6002  -4.0026 -17.5915   C.ar      1 RES1   0.0000
    48 N48      1.2501  -2.9313 -17.1136   N.ar      1 RES1   0.0000
    49 C49     -0.1023  -5.2350 -19.6239   C.3       1 RES1   0.0000
    50 H50     -0.1051  -6.1159 -18.9634   H         1 RES1   0.0000
    51 C51      0.5999  -5.6029 -20.9162   C.ar      1 RES1   0.0000
    52 C52     -1.5455  -4.8219 -19.8883   C.3       1 RES1   0.0000
    53 H53     -2.0931  -5.6241 -20.3785   H         1 RES1   0.0000
    54 H54     -2.0565  -4.5819 -18.9583   H         1 RES1   0.0000
    55 H55     -1.5825  -3.9449 -20.5311   H         1 RES1   0.0000
    56 C56      1.8941  -6.2640 -23.2928   C.ar      1 RES1   0.0000
    57 H57      2.3988  -6.5218 -24.2180   H         1 RES1   0.0000
    58 C58      1.2262  -4.6276 -21.6788   C.ar      1 RES1   0.0000
    59 H59      1.2112  -3.5951 -21.3457   H         1 RES1   0.0000
    60 C60      0.6308  -6.9157 -21.3660   C.ar      1 RES1   0.0000
    61 H61      0.1464  -7.6953 -20.7875   H         1 RES1   0.0000
    62 C62      1.2748  -7.2429 -22.5473   C.ar      1 RES1   0.0000
    63 H63      1.2915  -8.2734 -22.8862   H         1 RES1   0.0000
    64 C64      1.8703  -4.9567 -22.8594   C.ar      1 RES1   0.0000
    65 H65      2.3572  -4.1832 -23.4440   H         1 RES1   0.0000
@<TRIPOS>BOND
     1     1     5   ar
     2     1     6   ar
     3     1     2    1
     4     3     8   ar
     5     3     9   ar
     6     3     4    1
     7     5     9   ar
     8     5    11    1
     9     6     8   ar
    10     6     7    1
    11     8    12    1
    12     9    10    1
    13    11    20    2
    14    11    23    1
    15    13    14    1
    16    13    23   am
    17    13    24    1
    18    14    31    1
    19    14    34    1
    20    14    15    1
    21    16    24    1
    22    16    17    1
    23    16    18    1
    24    16    19    1
    25    20    21    1
    26    20    24    1
    27    21    40   ar
    28    21    45   ar
    29    22    23    2
    30    25    34    1
    31    25    37    1
    32    25    26    1
    33    25    27    1
    34    28    31    1
    35    28    37    1
    36    28    29    1
    37    28    30    1
    38    31    32    1
    39    31    33    1
    40    34    35    1
    41    34    36    1
    42    37    38    1
    43    37    39    1
    44    40    47   ar
    45    41    45   ar
    46    41    48   ar
    47    41    42    1
    48    43    47    1
    49    43    49    1
    50    43    44    1
    51    45    46    1
    52    47    48   ar
    53    49    51    1
    54    49    52    1
    55    49    50    1
    56    51    58   ar
    57    51    60   ar
    58    52    53    1
    59    52    54    1
    60    52    55    1
    61    56    62   ar
    62    56    64   ar
    63    56    57    1
    64    58    64   ar
    65    58    59    1
    66    60    62   ar
    67    60    61    1
    68    62    63    1
    69    64    65    1
@<TRIPOS>SUBSTRUCTURE
     1 RES1        1 GROUP             0 ****  ****    0  
@<TRIPOS>MOLECULE
LIGAND_00264
    65    69     1     0     0
SMALL
USER_CHARGES
****
Generated from the CSD

@<TRIPOS>ATOM
     1 C1      -3.0248  -3.8117 -15.3691   C.ar      1 RES1   0.0000
     2 H2      -3.8579  -4.2218 -14.8086   H         1 RES1   0.0000
     3 C3      -0.9094  -2.7260 -16.7756   C.ar      1 RES1   0.0000
     4 H4      -0.0813  -2.2894 -17.3241   H         1 RES1   0.0000
     5 C5      -1.8085  -4.4880 -15.3803   C.ar      1 RES1   0.0000
     6 C6      -3.1929  -2.6215 -16.0545   C.ar      1 RES1   0.0000
     7 H7      -4.1477  -2.1065 -16.0477   H         1 RES1   0.0000
     8 C8      -2.1271  -2.1087 -16.7387   C.ar      1 RES1   0.0000
     9 C9      -0.7584  -3.9218 -16.0977   C.ar      1 RES1   0.0000
    10 H10      0.2005  -4.4262 -16.1329   H         1 RES1   0.0000
    11 C11     -1.6101  -5.7761 -14.6397   C.2       1 RES1   0.0000
    12 F12     -2.2837  -0.9357 -17.4105   F         1 RES1   0.0000
    13 N13     -1.2406  -7.9410 -14.1570   N.am      1 RES1   0.0000
    14 C14     -1.5106  -9.4109 -14.3092   C.3       1 RES1   0.0000
    15 H15     -1.2170  -9.7059 -15.3156   H         1 RES1   0.0000
    16 C16     -0.8997  -7.6987 -11.7768   C.3       1 RES1   0.0000
    17 H17     -1.4821  -8.4148 -11.2007   H         1 RES1   0.0000
    18 H18      0.0445  -8.1682 -12.0450   H         1 RES1   0.0000
    19 H19     -0.6847  -6.8442 -11.1386   H         1 RES1   0.0000
    20 C20     -1.7513  -5.9390 -13.3057   C.2       1 RES1   0.0000
    21 C21     -2.0254  -4.9138 -12.2663   C.ar      1 RES1   0.0000
    22 O22     -1.1751  -7.3947 -16.3880   O.2       1 RES1   0.0000
    23 C23     -1.3018  -7.0544 -15.2191   C.2       1 RES1   0.0000
    24 N24     -1.6302  -7.2794 -12.9734   N.3       1 RES1   0.0000
    25 C25     -0.9160 -11.7077 -13.4737   C.3       1 RES1   0.0000
    26 H26     -0.3414 -12.2498 -12.7241   H         1 RES1   0.0000
    27 H27     -0.6031 -12.0220 -14.4682   H         1 RES1   0.0000
    28 C28     -3.2233 -11.2474 -14.2589   C.3       1 RES1   0.0000
    29 H29     -2.9784 -11.5605 -15.2728   H         1 RES1   0.0000
    30 H30     -4.2710 -11.4637 -14.0553   H         1 RES1   0.0000
    31 C31     -2.9880  -9.7502 -14.1282   C.3       1 RES1   0.0000
    32 H32     -3.5685  -9.2306 -14.8890   H         1 RES1   0.0000
    33 H33     -3.3098  -9.4240 -13.1403   H         1 RES1   0.0000
    34 C34     -0.6732 -10.2168 -13.3154   C.3       1 RES1   0.0000
    35 H35     -0.9403  -9.9191 -12.3025   H         1 RES1   0.0000
    36 H36      0.3815 -10.0085 -13.4887   H         1 RES1   0.0000
    37 N37     -2.3709 -12.0022 -13.2938   N.4       1 RES1   1.0000
    38 H38     -2.6417 -11.7467 -12.3496   H         1 RES1   0.0000
    39 H39     -2.5225 -12.9962 -13.4320   H         1 RES1   0.0000
    40 N40     -0.9580  -4.3300 -11.6994   N.ar      1 RES1   0.0000
    41 C41     -3.4397  -3.6190 -10.8951   C.ar      1 RES1   0.0000
    42 H42     -4.4387  -3.3344 -10.5815   H         1 RES1   0.0000
    43 N43     -0.1258  -2.8511 -10.1571   N.pl3     1 RES1   0.0000
    44 H44      0.8006  -3.1712 -10.4391   H         1 RES1   0.0000
    45 C45     -3.3148  -4.5762 -11.8818   C.ar      1 RES1   0.0000
    46 H46     -4.1838  -5.0436 -12.3329   H         1 RES1   0.0000
    47 C47     -1.1929  -3.4204 -10.7400   C.ar      1 RES1   0.0000
    48 N48     -2.3968  -3.0232 -10.3026   N.ar      1 RES1   0.0000
    49 C49     -0.2095  -1.8457  -9.0980   C.3       1 RES1   0.0000
    50 H50     -1.1005  -2.0527  -8.4851   H         1 RES1   0.0000
    51 C51     -0.3178  -0.4363  -9.6463   C.ar      1 RES1   0.0000
    52 C52      1.0282  -1.9939  -8.2210   C.3       1 RES1   0.0000
    53 H53      1.1037  -1.1679  -7.5168   H         1 RES1   0.0000
    54 H54      0.9919  -2.9211  -7.6529   H         1 RES1   0.0000
    55 H55      1.9306  -2.0041  -8.8286   H         1 RES1   0.0000
    56 C56     -0.5011   2.1543 -10.6540   C.ar      1 RES1   0.0000
    57 H57     -0.5726   3.1630 -11.0471   H         1 RES1   0.0000
    58 C58      0.8247   0.3037  -9.9147   C.ar      1 RES1   0.0000
    59 H59      1.8011  -0.1317  -9.7294   H         1 RES1   0.0000
    60 C60     -1.5548   0.1448  -9.8891   C.ar      1 RES1   0.0000
    61 H61     -2.4622  -0.4139  -9.6853   H         1 RES1   0.0000
    62 C62     -1.6444   1.4324 -10.3904   C.ar      1 RES1   0.0000
    63 H63     -2.6180   1.8735 -10.5759   H         1 RES1   0.0000
    64 C64      0.7333   1.5908 -10.4165   C.ar      1 RES1   0.0000
    65 H65      1.6357   2.1564 -10.6231   H         1 RES1   0.0000
@<TRIPOS>BOND
     1     1     5   ar
     2     1     6   ar
     3     1     2    1
     4     3     8   ar
     5     3     9   ar
     6     3     4    1
     7     5     9   ar
     8     5    11    1
     9     6     8   ar
    10     6     7    1
    11     8    12    1
    12     9    10    1
    13    11    20    2
    14    11    23    1
    15    13    14    1
    16    13    23   am
    17    13    24    1
    18    14    31    1
    19    14    34    1
    20    14    15    1
    21    16    24    1
    22    16    17    1
    23    16    18    1
    24    16    19    1
    25    20    21    1
    26    20    24    1
    27    21    40   ar
    28    21    45   ar
    29    22    23    2
    30    25    34    1
    31    25    37    1
    32    25    26    1
    33    25    27    1
    34    28    31    1
    35    28    37    1
    36    28    29    1
    37    28    30    1
    38    31    32    1
    39    31    33    1
    40    34    35    1
    41    34    36    1
    42    37    38    1
    43    37    39    1
    44    40    47   ar
    45    41    45   ar
    46    41    48   ar
    47    41    42    1
    48    43    47    1
    49    43    49    1
    50    43    44    1
    51    45    46    1
    52    47    48   ar
    53    49    51    1
    54    49    52    1
    55    49    50    1
    56    51    58   ar
    57    51    60   ar
    58    52    53    1
    59    52    54    1
    60    52    55    1
    61    56    62   ar
    62    56    64   ar
    63    56    57    1
    64    58    64   ar
    65    58    59    1
    66    60    62   ar
    67    60    61    1
    68    62    63    1
    69    64    65    1
@<TRIPOS>SUBSTRUCTURE
     1 RES1        1 GROUP             0 ****  ****    0  
@<TRIPOS>MOLECULE
LIGAND_00265
    65    69     1     0     0
SMALL
USER_CHARGES
****
Generated from the CSD

@<TRIPOS>ATOM
     1 C1      -0.6105  -3.4053 -15.0057   C.ar      1 RES1   0.0000
     2 H2      -1.6839  -3.4242 -14.8510   H         1 RES1   0.0000
     3 C3       2.1263  -3.3196 -15.3726   C.ar      1 RES1   0.0000
     4 H4       3.2015  -3.2760 -15.5115   H         1 RES1   0.0000
     5 C5       0.1309  -4.5651 -14.8009   C.ar      1 RES1   0.0000
     6 C6      -0.0057  -2.2242 -15.3979   C.ar      1 RES1   0.0000
     7 H7      -0.5933  -1.3276 -15.5644   H         1 RES1   0.0000
     8 C8       1.3500  -2.2131 -15.5686   C.ar      1 RES1   0.0000
     9 C9       1.5078  -4.4970 -14.9940   C.ar      1 RES1   0.0000
    10 H10      2.1141  -5.3840 -14.8497   H         1 RES1   0.0000
    11 C11     -0.5096  -5.8509 -14.3724   C.2       1 RES1   0.0000
    12 F12      1.9523  -1.0536 -15.9489   F         1 RES1   0.0000
    13 N13     -1.2619  -7.9332 -14.1705   N.am      1 RES1   0.0000
    14 C14     -1.5614  -9.3957 -14.3378   C.3       1 RES1   0.0000
    15 H15     -1.1149  -9.7271 -15.2741   H         1 RES1   0.0000
    16 C16     -2.1629  -7.8246 -11.8138   C.3       1 RES1   0.0000
    17 H17     -2.7084  -7.0947 -11.2193   H         1 RES1   0.0000
    18 H18     -2.8427  -8.6381 -12.0583   H         1 RES1   0.0000
    19 H19     -1.3579  -8.2271 -11.2025   H         1 RES1   0.0000
    20 C20     -1.1594  -5.9688 -13.1688   C.2       1 RES1   0.0000
    21 C21     -1.4160  -4.9157 -12.1531   C.ar      1 RES1   0.0000
    22 O22     -0.1469  -7.5152 -16.0874   O.2       1 RES1   0.0000
    23 C23     -0.5834  -7.1229 -15.0132   C.2       1 RES1   0.0000
    24 N24     -1.6302  -7.2089 -13.0298   N.pl3     1 RES1   0.0000
    25 C25     -1.2090 -11.6904 -13.3697   C.3       1 RES1   0.0000
    26 H26     -0.7910 -12.2336 -12.5234   H         1 RES1   0.0000
    27 H27     -0.7461 -12.0414 -14.2907   H         1 RES1   0.0000
    28 C28     -3.3308 -11.1667 -14.5426   C.3       1 RES1   0.0000
    29 H29     -2.9316 -11.5145 -15.4942   H         1 RES1   0.0000
    30 H30     -4.4057 -11.3392 -14.5150   H         1 RES1   0.0000
    31 C31     -3.0607  -9.6761 -14.4028   C.3       1 RES1   0.0000
    32 H32     -3.4835  -9.1555 -15.2607   H         1 RES1   0.0000
    33 H33     -3.5308  -9.3131 -13.4900   H         1 RES1   0.0000
    34 C34     -0.9364 -10.2057 -13.2013   C.3       1 RES1   0.0000
    35 H35     -1.3579  -9.8725 -12.2541   H         1 RES1   0.0000
    36 H36      0.1400 -10.0405 -13.1978   H         1 RES1   0.0000
    37 N37     -2.6840 -11.9268 -13.4329   N.4       1 RES1   1.0000
    38 H38     -3.0993 -11.6374 -12.5531   H         1 RES1   0.0000
    39 H39     -2.8502 -12.9179 -13.5755   H         1 RES1   0.0000
    40 N40     -2.1741  -3.8776 -12.5396   N.ar      1 RES1   0.0000
    41 C41     -1.1917  -3.9353 -10.0211   C.ar      1 RES1   0.0000
    42 H42     -0.7990  -3.9680  -9.0102   H         1 RES1   0.0000
    43 N43     -3.1319  -1.8575 -12.0297   N.pl3     1 RES1   0.0000
    44 H44     -3.4490  -1.8311 -12.9988   H         1 RES1   0.0000
    45 C45     -0.8939  -4.9825 -10.8696   C.ar      1 RES1   0.0000
    46 H46     -0.2788  -5.8165 -10.5484   H         1 RES1   0.0000
    47 C47     -2.3915  -2.9067 -11.6379   C.ar      1 RES1   0.0000
    48 N48     -1.9371  -2.8809 -10.3765   N.ar      1 RES1   0.0000
    49 C49     -3.4592  -0.7192 -11.1714   C.3       1 RES1   0.0000
    50 H50     -2.6203  -0.5467 -10.4795   H         1 RES1   0.0000
    51 C51     -4.7165  -0.9522 -10.3570   C.ar      1 RES1   0.0000
    52 C52     -3.6105   0.5058 -12.0658   C.3       1 RES1   0.0000
    53 H53     -3.9274   1.3703 -11.4863   H         1 RES1   0.0000
    54 H54     -2.6678   0.7502 -12.5509   H         1 RES1   0.0000
    55 H55     -4.3534   0.3267 -12.8402   H         1 RES1   0.0000
    56 C56     -7.0354  -1.3746  -8.8720   C.ar      1 RES1   0.0000
    57 H57     -7.9384  -1.5398  -8.2939   H         1 RES1   0.0000
    58 C58     -5.9594  -0.6054 -10.8669   C.ar      1 RES1   0.0000
    59 H59     -6.0287  -0.1641 -11.8557   H         1 RES1   0.0000
    60 C60     -4.6547  -1.5124  -9.0884   C.ar      1 RES1   0.0000
    61 H61     -3.6938  -1.7899  -8.6679   H         1 RES1   0.0000
    62 C62     -5.8082  -1.7221  -8.3516   C.ar      1 RES1   0.0000
    63 H63     -5.7446  -2.1614  -7.3617   H         1 RES1   0.0000
    64 C64     -7.1117  -0.8165 -10.1291   C.ar      1 RES1   0.0000
    65 H65     -8.0766  -0.5418 -10.5421   H         1 RES1   0.0000
@<TRIPOS>BOND
     1     1     5   ar
     2     1     6   ar
     3     1     2    1
     4     3     8   ar
     5     3     9   ar
     6     3     4    1
     7     5     9   ar
     8     5    11    1
     9     6     8   ar
    10     6     7    1
    11     8    12    1
    12     9    10    1
    13    11    20    2
    14    11    23    1
    15    13    14    1
    16    13    23   am
    17    13    24    1
    18    14    31    1
    19    14    34    1
    20    14    15    1
    21    16    24    1
    22    16    17    1
    23    16    18    1
    24    16    19    1
    25    20    21    1
    26    20    24    1
    27    21    40   ar
    28    21    45   ar
    29    22    23    2
    30    25    34    1
    31    25    37    1
    32    25    26    1
    33    25    27    1
    34    28    31    1
    35    28    37    1
    36    28    29    1
    37    28    30    1
    38    31    32    1
    39    31    33    1
    40    34    35    1
    41    34    36    1
    42    37    38    1
    43    37    39    1
    44    40    47   ar
    45    41    45   ar
    46    41    48   ar
    47    41    42    1
    48    43    47    1
    49    43    49    1
    50    43    44    1
    51    45    46    1
    52    47    48   ar
    53    49    51    1
    54    49    52    1
    55    49    50    1
    56    51    58   ar
    57    51    60   ar
    58    52    53    1
    59    52    54    1
    60    52    55    1
    61    56    62   ar
    62    56    64   ar
    63    56    57    1
    64    58    64   ar
    65    58    59    1
    66    60    62   ar
    67    60    61    1
    68    62    63    1
    69    64    65    1
@<TRIPOS>SUBSTRUCTURE
     1 RES1        1 GROUP             0 ****  ****    0  
@<TRIPOS>MOLECULE
LIGAND_00266
    65    69     1     0     0
SMALL
USER_CHARGES
****
Generated from the CSD

@<TRIPOS>ATOM
     1 C1      -0.3701  -3.8964 -15.9918   C.ar      1 RES1   0.0000
     2 H2      -1.1642  -4.3349 -16.5863   H         1 RES1   0.0000
     3 C3       1.6297  -2.7392 -14.4773   C.ar      1 RES1   0.0000
     4 H4       2.4102  -2.2746 -13.8839   H         1 RES1   0.0000
     5 C5       0.0599  -4.5461 -14.8386   C.ar      1 RES1   0.0000
     6 C6       0.1911  -2.6974 -16.3942   C.ar      1 RES1   0.0000
     7 H7      -0.1441  -2.2032 -17.2999   H         1 RES1   0.0000
     8 C8       1.1764  -2.1489 -15.6225   C.ar      1 RES1   0.0000
     9 C9       1.0700  -3.9440 -14.0935   C.ar      1 RES1   0.0000
    10 H10      1.4331  -4.4269 -13.1935   H         1 RES1   0.0000
    11 C11     -0.5410  -5.8434 -14.3880   C.2       1 RES1   0.0000
    12 F12      1.7291  -0.9670 -16.0092   F         1 RES1   0.0000
    13 N13     -1.2406  -7.9410 -14.1570   N.am      1 RES1   0.0000
    14 C14     -1.5106  -9.4109 -14.3092   C.3       1 RES1   0.0000
    15 H15     -1.0788  -9.7377 -15.2541   H         1 RES1   0.0000
    16 C16     -2.0882  -7.8386 -11.7803   C.3       1 RES1   0.0000
    17 H17     -2.6361  -7.1177 -11.1770   H         1 RES1   0.0000
    18 H18     -2.7550  -8.6688 -12.0043   H         1 RES1   0.0000
    19 H19     -1.2602  -8.2192 -11.1860   H         1 RES1   0.0000
    20 C20     -1.1594  -5.9688 -13.1688   C.2       1 RES1   0.0000
    21 C21     -1.4160  -4.9157 -12.1531   C.ar      1 RES1   0.0000
    22 O22     -0.1808  -7.5094 -16.1020   O.2       1 RES1   0.0000
    23 C23     -0.6007  -7.1206 -15.0199   C.2       1 RES1   0.0000
    24 N24     -1.5984  -7.2184 -13.0119   N.pl3     1 RES1   0.0000
    25 C25     -1.0831 -11.6911 -13.3372   C.3       1 RES1   0.0000
    26 H26     -0.6330 -12.2197 -12.4982   H         1 RES1   0.0000
    27 H27     -0.6343 -12.0371 -14.2671   H         1 RES1   0.0000
    28 C28     -3.2435 -11.2227 -14.4623   C.3       1 RES1   0.0000
    29 H29     -2.8590 -11.5671 -15.4212   H         1 RES1   0.0000
    30 H30     -4.3132 -11.4194 -14.4082   H         1 RES1   0.0000
    31 C31     -3.0042  -9.7256 -14.3370   C.3       1 RES1   0.0000
    32 H32     -3.4589  -9.2199 -15.1875   H         1 RES1   0.0000
    33 H33     -3.4607  -9.3678 -13.4154   H         1 RES1   0.0000
    34 C34     -0.8406 -10.1997 -13.1835   C.3       1 RES1   0.0000
    35 H35     -1.2471  -9.8704 -12.2284   H         1 RES1   0.0000
    36 H36      0.2316 -10.0101 -13.2064   H         1 RES1   0.0000
    37 N37     -2.5535 -11.9614 -13.3641   N.4       1 RES1   1.0000
    38 H38     -2.9544 -11.6761 -12.4763   H         1 RES1   0.0000
    39 H39     -2.7003 -12.9568 -13.4974   H         1 RES1   0.0000
    40 N40     -0.4619  -4.7249 -11.2286   N.ar      1 RES1   0.0000
    41 C41     -2.7124  -3.2288 -11.1379   C.ar      1 RES1   0.0000
    42 H42     -3.6155  -2.6280 -11.1111   H         1 RES1   0.0000
    43 N43      0.2500  -3.6161  -9.3518   N.pl3     1 RES1   0.0000
    44 H44      1.0577  -4.2389  -9.3625   H         1 RES1   0.0000
    45 C45     -2.5846  -4.1682 -12.1411   C.ar      1 RES1   0.0000
    46 H46     -3.3622  -4.3161 -12.8831   H         1 RES1   0.0000
    47 C47     -0.6941  -3.7933 -10.2898   C.ar      1 RES1   0.0000
    48 N48     -1.7846  -3.0185 -10.1952   N.ar      1 RES1   0.0000
    49 C49      0.1627  -2.6272  -8.2776   C.3       1 RES1   0.0000
    50 H50     -0.8978  -2.4756  -8.0233   H         1 RES1   0.0000
    51 C51      0.7602  -1.2909  -8.6723   C.ar      1 RES1   0.0000
    52 C52      0.8762  -3.2030  -7.0600   C.3       1 RES1   0.0000
    53 H53      0.8138  -2.5188  -6.2164   H         1 RES1   0.0000
    54 H54      0.4311  -4.1499  -6.7618   H         1 RES1   0.0000
    55 H55      1.9280  -3.3769  -7.2776   H         1 RES1   0.0000
    56 C56      1.8685   1.1632  -9.3860   C.ar      1 RES1   0.0000
    57 H57      2.3005   2.1187  -9.6645   H         1 RES1   0.0000
    58 C58      1.8274  -0.7602  -7.9620   C.ar      1 RES1   0.0000
    59 H59      2.2347  -1.3074  -7.1183   H         1 RES1   0.0000
    60 C60      0.2556  -0.5696  -9.7455   C.ar      1 RES1   0.0000
    61 H61     -0.5797  -0.9636 -10.3148   H         1 RES1   0.0000
    62 C62      0.8077   0.6500 -10.0994   C.ar      1 RES1   0.0000
    63 H63      0.4033   1.2024 -10.9410   H         1 RES1   0.0000
    64 C64      2.3787   0.4590  -8.3177   C.ar      1 RES1   0.0000
    65 H65      3.2142   0.8602  -7.7537   H         1 RES1   0.0000
@<TRIPOS>BOND
     1     1     5   ar
     2     1     6   ar
     3     1     2    1
     4     3     8   ar
     5     3     9   ar
     6     3     4    1
     7     5     9   ar
     8     5    11    1
     9     6     8   ar
    10     6     7    1
    11     8    12    1
    12     9    10    1
    13    11    20    2
    14    11    23    1
    15    13    14    1
    16    13    23   am
    17    13    24    1
    18    14    31    1
    19    14    34    1
    20    14    15    1
    21    16    24    1
    22    16    17    1
    23    16    18    1
    24    16    19    1
    25    20    21    1
    26    20    24    1
    27    21    40   ar
    28    21    45   ar
    29    22    23    2
    30    25    34    1
    31    25    37    1
    32    25    26    1
    33    25    27    1
    34    28    31    1
    35    28    37    1
    36    28    29    1
    37    28    30    1
    38    31    32    1
    39    31    33    1
    40    34    35    1
    41    34    36    1
    42    37    38    1
    43    37    39    1
    44    40    47   ar
    45    41    45   ar
    46    41    48   ar
    47    41    42    1
    48    43    47    1
    49    43    49    1
    50    43    44    1
    51    45    46    1
    52    47    48   ar
    53    49    51    1
    54    49    52    1
    55    49    50    1
    56    51    58   ar
    57    51    60   ar
    58    52    53    1
    59    52    54    1
    60    52    55    1
    61    56    62   ar
    62    56    64   ar
    63    56    57    1
    64    58    64   ar
    65    58    59    1
    66    60    62   ar
    67    60    61    1
    68    62    63    1
    69    64    65    1
@<TRIPOS>SUBSTRUCTURE
     1 RES1        1 GROUP             0 ****  ****    0  
@<TRIPOS>MOLECULE
LIGAND_00267
    65    69     1     0     0
SMALL
USER_CHARGES
****
Generated from the CSD

@<TRIPOS>ATOM
     1 C1      -0.3701  -3.8964 -15.9918   C.ar      1 RES1   0.0000
     2 H2      -1.1642  -4.3349 -16.5863   H         1 RES1   0.0000
     3 C3       1.6297  -2.7392 -14.4773   C.ar      1 RES1   0.0000
     4 H4       2.4102  -2.2746 -13.8839   H         1 RES1   0.0000
     5 C5       0.0599  -4.5461 -14.8386   C.ar      1 RES1   0.0000
     6 C6       0.1911  -2.6974 -16.3942   C.ar      1 RES1   0.0000
     7 H7      -0.1441  -2.2032 -17.2999   H         1 RES1   0.0000
     8 C8       1.1764  -2.1489 -15.6225   C.ar      1 RES1   0.0000
     9 C9       1.0700  -3.9440 -14.0935   C.ar      1 RES1   0.0000
    10 H10      1.4331  -4.4269 -13.1935   H         1 RES1   0.0000
    11 C11     -0.5410  -5.8434 -14.3880   C.2       1 RES1   0.0000
    12 F12      1.7291  -0.9670 -16.0092   F         1 RES1   0.0000
    13 N13     -1.2406  -7.9410 -14.1570   N.am      1 RES1   0.0000
    14 C14     -1.5106  -9.4109 -14.3092   C.3       1 RES1   0.0000
    15 H15     -1.0789  -9.7376 -15.2541   H         1 RES1   0.0000
    16 C16     -2.0882  -7.8386 -11.7803   C.3       1 RES1   0.0000
    17 H17     -2.6361  -7.1177 -11.1770   H         1 RES1   0.0000
    18 H18     -2.7550  -8.6688 -12.0043   H         1 RES1   0.0000
    19 H19     -1.2602  -8.2192 -11.1860   H         1 RES1   0.0000
    20 C20     -1.1594  -5.9688 -13.1688   C.2       1 RES1   0.0000
    21 C21     -1.4160  -4.9157 -12.1531   C.ar      1 RES1   0.0000
    22 O22     -0.1808  -7.5094 -16.1020   O.2       1 RES1   0.0000
    23 C23     -0.6007  -7.1206 -15.0199   C.2       1 RES1   0.0000
    24 N24     -1.5984  -7.2184 -13.0119   N.pl3     1 RES1   0.0000
    25 C25     -1.0831 -11.6911 -13.3373   C.3       1 RES1   0.0000
    26 H26     -0.6329 -12.2197 -12.4983   H         1 RES1   0.0000
    27 H27     -0.6342 -12.0371 -14.2672   H         1 RES1   0.0000
    28 C28     -3.2434 -11.2227 -14.4622   C.3       1 RES1   0.0000
    29 H29     -2.8591 -11.5671 -15.4211   H         1 RES1   0.0000
    30 H30     -4.3132 -11.4194 -14.4080   H         1 RES1   0.0000
    31 C31     -3.0042  -9.7256 -14.3369   C.3       1 RES1   0.0000
    32 H32     -3.4590  -9.2199 -15.1874   H         1 RES1   0.0000
    33 H33     -3.4607  -9.3679 -13.4152   H         1 RES1   0.0000
    34 C34     -0.8405 -10.1997 -13.1836   C.3       1 RES1   0.0000
    35 H35     -1.2470  -9.8704 -12.2284   H         1 RES1   0.0000
    36 H36      0.2317 -10.0101 -13.2065   H         1 RES1   0.0000
    37 N37     -2.5534 -11.9614 -13.3641   N.4       1 RES1   1.0000
    38 H38     -2.9542 -11.6762 -12.4762   H         1 RES1   0.0000
    39 H39     -2.7003 -12.9568 -13.4973   H         1 RES1   0.0000
    40 N40     -2.5784  -4.2520 -12.2536   N.ar      1 RES1   0.0000
    41 C41     -0.8501  -3.6050 -10.2773   C.ar      1 RES1   0.0000
    42 H42     -0.1544  -3.3547  -9.4832   H         1 RES1   0.0000
    43 N43     -3.9628  -2.6010 -11.4687   N.pl3     1 RES1   0.0000
    44 H44     -4.1794  -1.9053 -10.7550   H         1 RES1   0.0000
    45 C45     -0.5032  -4.6139 -11.1531   C.ar      1 RES1   0.0000
    46 H46      0.4396  -5.1435 -11.0647   H         1 RES1   0.0000
    47 C47     -2.8100  -3.2801 -11.3565   C.ar      1 RES1   0.0000
    48 N48     -1.9968  -2.9172 -10.3539   N.ar      1 RES1   0.0000
    49 C49     -4.9568  -2.8406 -12.5147   C.3       1 RES1   0.0000
    50 H50     -4.9162  -3.9025 -12.8030   H         1 RES1   0.0000
    51 C51     -4.7116  -1.9956 -13.7494   C.ar      1 RES1   0.0000
    52 C52     -6.3308  -2.5507 -11.9220   C.3       1 RES1   0.0000
    53 H53     -7.1146  -2.7448 -12.6511   H         1 RES1   0.0000
    54 H54     -6.5165  -3.1752 -11.0506   H         1 RES1   0.0000
    55 H55     -6.4047  -1.5097 -11.6146   H         1 RES1   0.0000
    56 C56     -4.2750  -0.4363 -16.0162   C.ar      1 RES1   0.0000
    57 H57     -4.1045   0.1715 -16.8986   H         1 RES1   0.0000
    58 C58     -5.6711  -1.0938 -14.1866   C.ar      1 RES1   0.0000
    59 H59     -6.6027  -0.9953 -13.6392   H         1 RES1   0.0000
    60 C60     -3.5296  -2.1049 -14.4691   C.ar      1 RES1   0.0000
    61 H61     -2.7654  -2.8045 -14.1474   H         1 RES1   0.0000
    62 C62     -3.3139  -1.3289 -15.5954   C.ar      1 RES1   0.0000
    63 H63     -2.3849  -1.4245 -16.1476   H         1 RES1   0.0000
    64 C64     -5.4533  -0.3182 -15.3125   C.ar      1 RES1   0.0000
    65 H65     -6.2124   0.3839 -15.6410   H         1 RES1   0.0000
@<TRIPOS>BOND
     1     1     5   ar
     2     1     6   ar
     3     1     2    1
     4     3     8   ar
     5     3     9   ar
     6     3     4    1
     7     5     9   ar
     8     5    11    1
     9     6     8   ar
    10     6     7    1
    11     8    12    1
    12     9    10    1
    13    11    20    2
    14    11    23    1
    15    13    14    1
    16    13    23   am
    17    13    24    1
    18    14    31    1
    19    14    34    1
    20    14    15    1
    21    16    24    1
    22    16    17    1
    23    16    18    1
    24    16    19    1
    25    20    21    1
    26    20    24    1
    27    21    40   ar
    28    21    45   ar
    29    22    23    2
    30    25    34    1
    31    25    37    1
    32    25    26    1
    33    25    27    1
    34    28    31    1
    35    28    37    1
    36    28    29    1
    37    28    30    1
    38    31    32    1
    39    31    33    1
    40    34    35    1
    41    34    36    1
    42    37    38    1
    43    37    39    1
    44    40    47   ar
    45    41    45   ar
    46    41    48   ar
    47    41    42    1
    48    43    47    1
    49    43    49    1
    50    43    44    1
    51    45    46    1
    52    47    48   ar
    53    49    51    1
    54    49    52    1
    55    49    50    1
    56    51    58   ar
    57    51    60   ar
    58    52    53    1
    59    52    54    1
    60    52    55    1
    61    56    62   ar
    62    56    64   ar
    63    56    57    1
    64    58    64   ar
    65    58    59    1
    66    60    62   ar
    67    60    61    1
    68    62    63    1
    69    64    65    1
@<TRIPOS>SUBSTRUCTURE
     1 RES1        1 GROUP             0 ****  ****    0  
@<TRIPOS>MOLECULE
LIGAND_00268
    65    69     1     0     0
SMALL
USER_CHARGES
****
Generated from the CSD

@<TRIPOS>ATOM
     1 C1       0.3359  -4.0444 -15.7323   C.ar      1 RES1   0.0000
     2 H2      -0.3718  -4.4422 -16.4516   H         1 RES1   0.0000
     3 C3       2.1186  -2.9892 -13.9046   C.ar      1 RES1   0.0000
     4 H4       2.8149  -2.5644 -13.1891   H         1 RES1   0.0000
     5 C5       0.5126  -4.6946 -14.5146   C.ar      1 RES1   0.0000
     6 C6       1.0410  -2.8953 -16.0437   C.ar      1 RES1   0.0000
     7 H7       0.9036  -2.4008 -16.9995   H         1 RES1   0.0000
     8 C8       1.9135  -2.3965 -15.1178   C.ar      1 RES1   0.0000
     9 C9       1.4177  -4.1446 -13.6113   C.ar      1 RES1   0.0000
    10 H10      1.5844  -4.6299 -12.6564   H         1 RES1   0.0000
    11 C11     -0.2467  -5.9380 -14.1617   C.2       1 RES1   0.0000
    12 F12      2.6063  -1.2636 -15.4151   F         1 RES1   0.0000
    13 N13     -1.2406  -7.9410 -14.1570   N.am      1 RES1   0.0000
    14 C14     -1.5106  -9.4109 -14.3092   C.3       1 RES1   0.0000
    15 H15     -0.9490  -9.7701 -15.1703   H         1 RES1   0.0000
    16 C16     -2.9634  -7.4981 -12.4712   C.3       1 RES1   0.0000
    17 H17     -3.2161  -6.7696 -11.7036   H         1 RES1   0.0000
    18 H18     -3.7034  -7.4236 -13.2653   H         1 RES1   0.0000
    19 H19     -3.0343  -8.4914 -12.0332   H         1 RES1   0.0000
    20 C20     -1.0688  -6.0097 -13.0848   C.2       1 RES1   0.0000
    21 C21     -1.4087  -4.9383 -12.1137   C.ar      1 RES1   0.0000
    22 O22      0.2750  -7.5989 -15.8623   O.2       1 RES1   0.0000
    23 C23     -0.3156  -7.1911 -14.8707   C.2       1 RES1   0.0000
    24 N24     -1.6169  -7.2574 -12.9912   N.3       1 RES1   0.0000
    25 C25     -1.2721 -11.6680 -13.2251   C.3       1 RES1   0.0000
    26 H26     -0.9608 -12.1784 -12.3148   H         1 RES1   0.0000
    27 H27     -0.6962 -12.0463 -14.0684   H         1 RES1   0.0000
    28 C28     -3.2328 -11.2030 -14.6712   C.3       1 RES1   0.0000
    29 H29     -2.7163 -11.5797 -15.5528   H         1 RES1   0.0000
    30 H30     -4.3020 -11.3838 -14.7719   H         1 RES1   0.0000
    31 C31     -2.9887  -9.7063 -14.5509   C.3       1 RES1   0.0000
    32 H32     -3.3032  -9.2190 -15.4726   H         1 RES1   0.0000
    33 H33     -3.5708  -9.3164 -13.7172   H         1 RES1   0.0000
    34 C34     -1.0290 -10.1762 -13.0760   C.3       1 RES1   0.0000
    35 H35     -1.5671  -9.8145 -12.2011   H         1 RES1   0.0000
    36 H36      0.0378 -10.0017 -12.9440   H         1 RES1   0.0000
    37 N37     -2.7266 -11.9193 -13.4636   N.4       1 RES1   1.0000
    38 H38     -3.2498 -11.6036 -12.6532   H         1 RES1   0.0000
    39 H39     -2.8693 -12.9161 -13.5911   H         1 RES1   0.0000
    40 N40     -0.6191  -4.8314 -11.0335   N.ar      1 RES1   0.0000
    41 C41     -2.7138  -3.1449 -11.3153   C.ar      1 RES1   0.0000
    42 H42     -3.5526  -2.4677 -11.4379   H         1 RES1   0.0000
    43 N43     -0.1558  -3.7890  -9.0443   N.pl3     1 RES1   0.0000
    44 H44      0.6095  -4.4557  -8.9427   H         1 RES1   0.0000
    45 C45     -2.4926  -4.0918 -12.2950   C.ar      1 RES1   0.0000
    46 H46     -3.1376  -4.1714 -13.1639   H         1 RES1   0.0000
    47 C47     -0.9320  -3.8832 -10.1357   C.ar      1 RES1   0.0000
    48 N48     -1.9515  -3.0164 -10.2217   N.ar      1 RES1   0.0000
    49 C49     -0.3770  -2.8309  -7.9614   C.3       1 RES1   0.0000
    50 H50     -0.4139  -1.8173  -8.3896   H         1 RES1   0.0000
    51 C51      0.7219  -2.8743  -6.9178   C.ar      1 RES1   0.0000
    52 C52     -1.7318  -3.1437  -7.3370   C.3       1 RES1   0.0000
    53 H53     -1.7232  -2.9327  -6.2697   H         1 RES1   0.0000
    54 H54     -2.5168  -2.5451  -7.7943   H         1 RES1   0.0000
    55 H55     -1.9841  -4.1934  -7.4724   H         1 RES1   0.0000
    56 C56      2.7379  -2.9690  -4.9976   C.ar      1 RES1   0.0000
    57 H57      3.5236  -3.0060  -4.2503   H         1 RES1   0.0000
    58 C58      0.9796  -4.0430  -6.2158   C.ar      1 RES1   0.0000
    59 H59      0.3884  -4.9303  -6.4168   H         1 RES1   0.0000
    60 C60      1.4903  -1.7523  -6.6397   C.ar      1 RES1   0.0000
    61 H61      1.3061  -0.8265  -7.1747   H         1 RES1   0.0000
    62 C62      2.4923  -1.8009  -5.6852   C.ar      1 RES1   0.0000
    63 H63      3.0853  -0.9162  -5.4788   H         1 RES1   0.0000
    64 C64      1.9823  -4.0900  -5.2623   C.ar      1 RES1   0.0000
    65 H65      2.1731  -5.0117  -4.7227   H         1 RES1   0.0000
@<TRIPOS>BOND
     1     1     5   ar
     2     1     6   ar
     3     1     2    1
     4     3     8   ar
     5     3     9   ar
     6     3     4    1
     7     5     9   ar
     8     5    11    1
     9     6     8   ar
    10     6     7    1
    11     8    12    1
    12     9    10    1
    13    11    20    2
    14    11    23    1
    15    13    14    1
    16    13    23   am
    17    13    24    1
    18    14    31    1
    19    14    34    1
    20    14    15    1
    21    16    24    1
    22    16    17    1
    23    16    18    1
    24    16    19    1
    25    20    21    1
    26    20    24    1
    27    21    40   ar
    28    21    45   ar
    29    22    23    2
    30    25    34    1
    31    25    37    1
    32    25    26    1
    33    25    27    1
    34    28    31    1
    35    28    37    1
    36    28    29    1
    37    28    30    1
    38    31    32    1
    39    31    33    1
    40    34    35    1
    41    34    36    1
    42    37    38    1
    43    37    39    1
    44    40    47   ar
    45    41    45   ar
    46    41    48   ar
    47    41    42    1
    48    43    47    1
    49    43    49    1
    50    43    44    1
    51    45    46    1
    52    47    48   ar
    53    49    51    1
    54    49    52    1
    55    49    50    1
    56    51    58   ar
    57    51    60   ar
    58    52    53    1
    59    52    54    1
    60    52    55    1
    61    56    62   ar
    62    56    64   ar
    63    56    57    1
    64    58    64   ar
    65    58    59    1
    66    60    62   ar
    67    60    61    1
    68    62    63    1
    69    64    65    1
@<TRIPOS>SUBSTRUCTURE
     1 RES1        1 GROUP             0 ****  ****    0  
@<TRIPOS>MOLECULE
LIGAND_00269
    65    69     1     0     0
SMALL
USER_CHARGES
****
Generated from the CSD

@<TRIPOS>ATOM
     1 C1      -0.1313  -3.4938 -14.7980   C.ar      1 RES1   0.0000
     2 H2      -1.2144  -3.4482 -14.7628   H         1 RES1   0.0000
     3 C3       2.6295  -3.5726 -14.8604   C.ar      1 RES1   0.0000
     4 H4       3.7141  -3.5935 -14.8797   H         1 RES1   0.0000
     5 C5       0.5126  -4.6946 -14.5146   C.ar      1 RES1   0.0000
     6 C6       0.5824  -2.3527 -15.1190   C.ar      1 RES1   0.0000
     7 H7       0.0712  -1.4236 -15.3478   H         1 RES1   0.0000
     8 C8       1.9469  -2.4229 -15.1390   C.ar      1 RES1   0.0000
     9 C9       1.9040  -4.7094 -14.5545   C.ar      1 RES1   0.0000
    10 H10      2.4368  -5.6301 -14.3457   H         1 RES1   0.0000
    11 C11     -0.2467  -5.9380 -14.1617   C.2       1 RES1   0.0000
    12 F12      2.6554  -1.3031 -15.4485   F         1 RES1   0.0000
    13 N13     -1.2406  -7.9410 -14.1570   N.am      1 RES1   0.0000
    14 C14     -1.5106  -9.4109 -14.3092   C.3       1 RES1   0.0000
    15 H15     -0.9490  -9.7701 -15.1703   H         1 RES1   0.0000
    16 C16     -2.9634  -7.4981 -12.4712   C.3       1 RES1   0.0000
    17 H17     -3.2161  -6.7696 -11.7036   H         1 RES1   0.0000
    18 H18     -3.7034  -7.4236 -13.2653   H         1 RES1   0.0000
    19 H19     -3.0343  -8.4914 -12.0332   H         1 RES1   0.0000
    20 C20     -1.0688  -6.0097 -13.0848   C.2       1 RES1   0.0000
    21 C21     -1.4087  -4.9383 -12.1137   C.ar      1 RES1   0.0000
    22 O22      0.2750  -7.5989 -15.8623   O.2       1 RES1   0.0000
    23 C23     -0.3156  -7.1911 -14.8707   C.2       1 RES1   0.0000
    24 N24     -1.6169  -7.2574 -12.9912   N.3       1 RES1   0.0000
    25 C25     -1.2721 -11.6680 -13.2251   C.3       1 RES1   0.0000
    26 H26     -0.9608 -12.1784 -12.3148   H         1 RES1   0.0000
    27 H27     -0.6962 -12.0463 -14.0684   H         1 RES1   0.0000
    28 C28     -3.2328 -11.2030 -14.6712   C.3       1 RES1   0.0000
    29 H29     -2.7163 -11.5797 -15.5528   H         1 RES1   0.0000
    30 H30     -4.3020 -11.3838 -14.7719   H         1 RES1   0.0000
    31 C31     -2.9887  -9.7063 -14.5509   C.3       1 RES1   0.0000
    32 H32     -3.3032  -9.2190 -15.4726   H         1 RES1   0.0000
    33 H33     -3.5708  -9.3164 -13.7172   H         1 RES1   0.0000
    34 C34     -1.0290 -10.1762 -13.0760   C.3       1 RES1   0.0000
    35 H35     -1.5671  -9.8145 -12.2011   H         1 RES1   0.0000
    36 H36      0.0378 -10.0017 -12.9440   H         1 RES1   0.0000
    37 N37     -2.7266 -11.9193 -13.4636   N.4       1 RES1   1.0000
    38 H38     -3.2498 -11.6036 -12.6532   H         1 RES1   0.0000
    39 H39     -2.8693 -12.9161 -13.5911   H         1 RES1   0.0000
    40 N40     -2.4741  -4.1759 -12.4060   N.ar      1 RES1   0.0000
    41 C41     -1.0710  -3.6820 -10.1479   C.ar      1 RES1   0.0000
    42 H42     -0.5068  -3.4933  -9.2404   H         1 RES1   0.0000
    43 N43     -3.8280  -2.4106 -11.8503   N.pl3     1 RES1   0.0000
    44 H44     -4.3235  -2.5943 -12.7227   H         1 RES1   0.0000
    45 C45     -0.6634  -4.7173 -10.9648   C.ar      1 RES1   0.0000
    46 H46      0.2002  -5.3270 -10.7208   H         1 RES1   0.0000
    47 C47     -2.7755  -3.1875 -11.5485   C.ar      1 RES1   0.0000
    48 N48     -2.1231  -2.8969 -10.4135   N.ar      1 RES1   0.0000
    49 C49     -4.2701  -1.2774 -11.0379   C.3       1 RES1   0.0000
    50 H50     -4.4435  -1.6280 -10.0087   H         1 RES1   0.0000
    51 C51     -5.5518  -0.6577 -11.5591   C.ar      1 RES1   0.0000
    52 C52     -3.1407  -0.2541 -11.0182   C.3       1 RES1   0.0000
    53 H53     -3.5374   0.7582 -10.9768   H         1 RES1   0.0000
    54 H54     -2.4987  -0.4020 -10.1524   H         1 RES1   0.0000
    55 H55     -2.5279  -0.3410 -11.9130   H         1 RES1   0.0000
    56 C56     -7.8999   0.4840 -12.5303   C.ar      1 RES1   0.0000
    57 H57     -8.8147   0.9279 -12.9087   H         1 RES1   0.0000
    58 C58     -5.6068  -0.1280 -12.8403   C.ar      1 RES1   0.0000
    59 H59     -4.7245  -0.1585 -13.4710   H         1 RES1   0.0000
    60 C60     -6.6934  -0.6036 -10.7711   C.ar      1 RES1   0.0000
    61 H61     -6.6739  -1.0098  -9.7653   H         1 RES1   0.0000
    62 C62     -7.8599  -0.0361 -11.2554   C.ar      1 RES1   0.0000
    63 H63     -8.7446  -0.0013 -10.6284   H         1 RES1   0.0000
    64 C64     -6.7743   0.4383 -13.3230   C.ar      1 RES1   0.0000
    65 H65     -6.8023   0.8469 -14.3277   H         1 RES1   0.0000
@<TRIPOS>BOND
     1     1     5   ar
     2     1     6   ar
     3     1     2    1
     4     3     8   ar
     5     3     9   ar
     6     3     4    1
     7     5     9   ar
     8     5    11    1
     9     6     8   ar
    10     6     7    1
    11     8    12    1
    12     9    10    1
    13    11    20    2
    14    11    23    1
    15    13    14    1
    16    13    23   am
    17    13    24    1
    18    14    31    1
    19    14    34    1
    20    14    15    1
    21    16    24    1
    22    16    17    1
    23    16    18    1
    24    16    19    1
    25    20    21    1
    26    20    24    1
    27    21    40   ar
    28    21    45   ar
    29    22    23    2
    30    25    34    1
    31    25    37    1
    32    25    26    1
    33    25    27    1
    34    28    31    1
    35    28    37    1
    36    28    29    1
    37    28    30    1
    38    31    32    1
    39    31    33    1
    40    34    35    1
    41    34    36    1
    42    37    38    1
    43    37    39    1
    44    40    47   ar
    45    41    45   ar
    46    41    48   ar
    47    41    42    1
    48    43    47    1
    49    43    49    1
    50    43    44    1
    51    45    46    1
    52    47    48   ar
    53    49    51    1
    54    49    52    1
    55    49    50    1
    56    51    58   ar
    57    51    60   ar
    58    52    53    1
    59    52    54    1
    60    52    55    1
    61    56    62   ar
    62    56    64   ar
    63    56    57    1
    64    58    64   ar
    65    58    59    1
    66    60    62   ar
    67    60    61    1
    68    62    63    1
    69    64    65    1
@<TRIPOS>SUBSTRUCTURE
     1 RES1        1 GROUP             0 ****  ****    0  
@<TRIPOS>MOLECULE
LIGAND_00270
    65    69     1     0     0
SMALL
USER_CHARGES
****
Generated from the CSD

@<TRIPOS>ATOM
     1 C1       0.8682  -5.2546 -11.2277   C.ar      1 RES1   0.0000
     2 H2       1.2316  -6.2596 -11.0425   H         1 RES1   0.0000
     3 C3      -0.0140  -2.6787 -11.6948   C.ar      1 RES1   0.0000
     4 H4      -0.3503  -1.6630 -11.8756   H         1 RES1   0.0000
     5 C5       0.0652  -5.0110 -12.3380   C.ar      1 RES1   0.0000
     6 C6       1.2185  -4.2388 -10.3559   C.ar      1 RES1   0.0000
     7 H7       1.8370  -4.4403  -9.4877   H         1 RES1   0.0000
     8 C8       0.7687  -2.9749 -10.6155   C.ar      1 RES1   0.0000
     9 C9      -0.3682  -3.7054 -12.5508   C.ar      1 RES1   0.0000
    10 H10     -1.0008  -3.4823 -13.4024   H         1 RES1   0.0000
    11 C11     -0.3194  -6.1003 -13.2933   C.2       1 RES1   0.0000
    12 F12      1.1138  -1.9699  -9.7654   F         1 RES1   0.0000
    13 N13     -1.1115  -8.0203 -14.1552   N.am      1 RES1   0.0000
    14 C14     -1.2184  -9.5175 -14.2127   C.3       1 RES1   0.0000
    15 H15     -0.7685  -9.8527 -15.1461   H         1 RES1   0.0000
    16 C16     -1.0362  -7.3947 -16.4883   C.3       1 RES1   0.0000
    17 H17     -0.3066  -7.1969 -17.2708   H         1 RES1   0.0000
    18 H18     -1.4651  -8.3788 -16.6663   H         1 RES1   0.0000
    19 H19     -1.8320  -6.6576 -16.5718   H         1 RES1   0.0000
    20 C20     -0.0279  -6.1202 -14.6126   C.2       1 RES1   0.0000
    21 C21      0.6269  -5.0726 -15.4374   C.ar      1 RES1   0.0000
    22 O22     -1.3709  -7.7676 -11.8860   O.2       1 RES1   0.0000
    23 C23     -0.9995  -7.3226 -12.9641   C.2       1 RES1   0.0000
    24 N24     -0.4099  -7.3319 -15.1673   N.3       1 RES1   0.0000
    25 C25     -0.5235 -11.6720 -13.1161   C.3       1 RES1   0.0000
    26 H26     -0.0036 -12.0945 -12.2576   H         1 RES1   0.0000
    27 H27     -0.0543 -12.0235 -14.0338   H         1 RES1   0.0000
    28 C28     -2.7408 -11.5153 -14.2166   C.3       1 RES1   0.0000
    29 H29     -2.3363 -11.8741 -15.1619   H         1 RES1   0.0000
    30 H30     -3.7809 -11.8250 -14.1260   H         1 RES1   0.0000
    31 C31     -2.6678  -9.9961 -14.1869   C.3       1 RES1   0.0000
    32 H32     -3.1901  -9.5974 -15.0553   H         1 RES1   0.0000
    33 H33     -3.1462  -9.6343 -13.2779   H         1 RES1   0.0000
    34 C34     -0.4462 -10.1563 -13.0577   C.3       1 RES1   0.0000
    35 H35     -0.8711  -9.8151 -12.1148   H         1 RES1   0.0000
    36 H36      0.5976  -9.8514 -13.1168   H         1 RES1   0.0000
    37 N37     -1.9549 -12.1038 -13.0925   N.4       1 RES1   1.0000
    38 H38     -2.3704 -11.8099 -12.2144   H         1 RES1   0.0000
    39 H39     -1.9920 -13.1157 -13.1625   H         1 RES1   0.0000
    40 N40      1.6583  -4.4216 -14.8771   N.ar      1 RES1   0.0000
    41 C41      0.8769  -3.7606 -17.3799   C.ar      1 RES1   0.0000
    42 H42      0.5616  -3.5047 -18.3861   H         1 RES1   0.0000
    43 N43      3.2597  -2.7880 -15.0363   N.pl3     1 RES1   0.0000
    44 H44      3.5044  -3.0180 -14.0732   H         1 RES1   0.0000
    45 C45      0.1961  -4.7634 -16.7193   C.ar      1 RES1   0.0000
    46 H46     -0.6376  -5.2828 -17.1801   H         1 RES1   0.0000
    47 C47      2.2416  -3.4546 -15.6036   C.ar      1 RES1   0.0000
    48 N48      1.9038  -3.0854 -16.8477   N.ar      1 RES1   0.0000
    49 C49      3.9990  -1.7091 -15.6912   C.3       1 RES1   0.0000
    50 H50      3.3106  -1.1613 -16.3532   H         1 RES1   0.0000
    51 C51      5.1590  -2.2239 -16.5207   C.ar      1 RES1   0.0000
    52 C52      4.4878  -0.7580 -14.6051   C.3       1 RES1   0.0000
    53 H53      5.0194   0.0853 -15.0408   H         1 RES1   0.0000
    54 H54      3.6528  -0.3693 -14.0258   H         1 RES1   0.0000
    55 H55      5.1644  -1.2687 -13.9231   H         1 RES1   0.0000
    56 C56      7.2917  -3.1818 -18.0353   C.ar      1 RES1   0.0000
    57 H57      8.1219  -3.5552 -18.6257   H         1 RES1   0.0000
    58 C58      5.8170  -3.3914 -16.1617   C.ar      1 RES1   0.0000
    59 H59      5.4973  -3.9373 -15.2803   H         1 RES1   0.0000
    60 C60      5.5894  -1.5424 -17.6509   C.ar      1 RES1   0.0000
    61 H61      5.0914  -0.6262 -17.9503   H         1 RES1   0.0000
    62 C62      6.6494  -2.0200 -18.4030   C.ar      1 RES1   0.0000
    63 H63      6.9745  -1.4772 -19.2843   H         1 RES1   0.0000
    64 C64      6.8763  -3.8678 -16.9153   C.ar      1 RES1   0.0000
    65 H65      7.3798  -4.7832 -16.6229   H         1 RES1   0.0000
@<TRIPOS>BOND
     1     1     5   ar
     2     1     6   ar
     3     1     2    1
     4     3     8   ar
     5     3     9   ar
     6     3     4    1
     7     5     9   ar
     8     5    11    1
     9     6     8   ar
    10     6     7    1
    11     8    12    1
    12     9    10    1
    13    11    20    2
    14    11    23    1
    15    13    14    1
    16    13    23   am
    17    13    24    1
    18    14    31    1
    19    14    34    1
    20    14    15    1
    21    16    24    1
    22    16    17    1
    23    16    18    1
    24    16    19    1
    25    20    21    1
    26    20    24    1
    27    21    40   ar
    28    21    45   ar
    29    22    23    2
    30    25    34    1
    31    25    37    1
    32    25    26    1
    33    25    27    1
    34    28    31    1
    35    28    37    1
    36    28    29    1
    37    28    30    1
    38    31    32    1
    39    31    33    1
    40    34    35    1
    41    34    36    1
    42    37    38    1
    43    37    39    1
    44    40    47   ar
    45    41    45   ar
    46    41    48   ar
    47    41    42    1
    48    43    47    1
    49    43    49    1
    50    43    44    1
    51    45    46    1
    52    47    48   ar
    53    49    51    1
    54    49    52    1
    55    49    50    1
    56    51    58   ar
    57    51    60   ar
    58    52    53    1
    59    52    54    1
    60    52    55    1
    61    56    62   ar
    62    56    64   ar
    63    56    57    1
    64    58    64   ar
    65    58    59    1
    66    60    62   ar
    67    60    61    1
    68    62    63    1
    69    64    65    1
@<TRIPOS>SUBSTRUCTURE
     1 RES1        1 GROUP             0 ****  ****    0  
@<TRIPOS>MOLECULE
LIGAND_00271
    65    69     1     0     0
SMALL
USER_CHARGES
****
Generated from the CSD

@<TRIPOS>ATOM
     1 C1      -1.2360  -3.4877 -12.8971   C.ar      1 RES1   0.0000
     2 H2      -0.3321  -3.8526 -12.4213   H         1 RES1   0.0000
     3 C3      -3.5150  -2.5205 -14.1228   C.ar      1 RES1   0.0000
     4 H4      -4.4048  -2.1308 -14.6061   H         1 RES1   0.0000
     5 C5      -1.9397  -4.3224 -13.7602   C.ar      1 RES1   0.0000
     6 C6      -1.6623  -2.1974 -12.6366   C.ar      1 RES1   0.0000
     7 H7      -1.1123  -1.5575 -11.9547   H         1 RES1   0.0000
     8 C8      -2.7917  -1.7472 -13.2602   C.ar      1 RES1   0.0000
     9 C9      -3.0858  -3.8127 -14.3641   C.ar      1 RES1   0.0000
    10 H10     -3.6613  -4.4386 -15.0365   H         1 RES1   0.0000
    11 C11     -1.4881  -5.7210 -14.0551   C.2       1 RES1   0.0000
    12 F12     -3.2139  -0.4773 -13.0129   F         1 RES1   0.0000
    13 N13     -1.2406  -7.9410 -14.1570   N.am      1 RES1   0.0000
    14 C14     -1.5106  -9.4109 -14.3092   C.3       1 RES1   0.0000
    15 H15     -1.1008  -9.7324 -15.2656   H         1 RES1   0.0000
    16 C16      1.1525  -8.0254 -14.6787   C.3       1 RES1   0.0000
    17 H17      1.9653  -7.3587 -14.9591   H         1 RES1   0.0000
    18 H18      1.3281  -8.3633 -13.6594   H         1 RES1   0.0000
    19 H19      1.1837  -8.8933 -15.3340   H         1 RES1   0.0000
    20 C20     -0.2822  -5.9961 -14.6126   C.2       1 RES1   0.0000
    21 C21      0.7971  -5.0460 -14.9858   C.ar      1 RES1   0.0000
    22 O22     -3.2591  -7.2142 -13.3089   O.2       1 RES1   0.0000
    23 C23     -2.1513  -6.9682 -13.7677   C.2       1 RES1   0.0000
    24 N24     -0.1378  -7.3433 -14.7851   N.3       1 RES1   0.0000
    25 C25     -1.0544 -11.6943 -13.3579   C.3       1 RES1   0.0000
    26 H26     -0.5829 -12.2253 -12.5323   H         1 RES1   0.0000
    27 H27     -0.6271 -12.0351 -14.2998   H         1 RES1   0.0000
    28 C28     -3.2422 -11.2264 -14.4286   C.3       1 RES1   0.0000
    29 H29     -2.8801 -11.5656 -15.3980   H         1 RES1   0.0000
    30 H30     -4.3098 -11.4261 -14.3498   H         1 RES1   0.0000
    31 C31     -3.0036  -9.7293 -14.3025   C.3       1 RES1   0.0000
    32 H32     -3.4799  -9.2210 -15.1396   H         1 RES1   0.0000
    33 H33     -3.4388  -9.3767 -13.3686   H         1 RES1   0.0000
    34 C34     -0.8118 -10.2030 -13.2034   C.3       1 RES1   0.0000
    35 H35     -1.1961  -9.8789 -12.2374   H         1 RES1   0.0000
    36 H36      0.2590 -10.0105 -13.2512   H         1 RES1   0.0000
    37 N37     -2.5243 -11.9681 -13.3507   N.4       1 RES1   1.0000
    38 H38     -2.9044 -11.6878 -12.4522   H         1 RES1   0.0000
    39 H39     -2.6718 -12.9633 -13.4848   H         1 RES1   0.0000
    40 N40      0.7556  -4.5459 -16.2307   N.ar      1 RES1   0.0000
    41 C41      2.7640  -3.8134 -14.5749   C.ar      1 RES1   0.0000
    42 H42      3.5636  -3.5194 -13.9030   H         1 RES1   0.0000
    43 N43      1.7123  -3.2215 -17.8398   N.pl3     1 RES1   0.0000
    44 H44      0.9856  -3.5633 -18.4686   H         1 RES1   0.0000
    45 C45      1.8104  -4.6946 -14.1061   C.ar      1 RES1   0.0000
    46 H46      1.8534  -5.0948 -13.0985   H         1 RES1   0.0000
    47 C47      1.7406  -3.7060 -16.5880   C.ar      1 RES1   0.0000
    48 N48      2.7577  -3.3024 -15.8128   N.ar      1 RES1   0.0000
    49 C49      2.6959  -2.2818 -18.3773   C.3       1 RES1   0.0000
    50 H50      3.6904  -2.7529 -18.3402   H         1 RES1   0.0000
    51 C51      2.7462  -0.9857 -17.5924   C.ar      1 RES1   0.0000
    52 C52      2.3369  -2.0204 -19.8354   C.3       1 RES1   0.0000
    53 H53      3.0585  -1.3493 -20.2965   H         1 RES1   0.0000
    54 H54      2.3253  -2.9479 -20.4040   H         1 RES1   0.0000
    55 H55      1.3525  -1.5635 -19.9127   H         1 RES1   0.0000
    56 C56      2.8234   1.3941 -16.1464   C.ar      1 RES1   0.0000
    57 H57      2.8538   2.3206 -15.5827   H         1 RES1   0.0000
    58 C58      1.6119  -0.5059 -16.9534   C.ar      1 RES1   0.0000
    59 H59      0.6838  -1.0641 -17.0182   H         1 RES1   0.0000
    60 C60      3.9202  -0.2513 -17.4967   C.ar      1 RES1   0.0000
    61 H61      4.8194  -0.6056 -17.9894   H         1 RES1   0.0000
    62 C62      3.9571   0.9313 -16.7773   C.ar      1 RES1   0.0000
    63 H63      4.8820   1.4945 -16.7106   H         1 RES1   0.0000
    64 C64      1.6509   0.6763 -16.2340   C.ar      1 RES1   0.0000
    65 H65      0.7562   1.0378 -15.7382   H         1 RES1   0.0000
@<TRIPOS>BOND
     1     1     5   ar
     2     1     6   ar
     3     1     2    1
     4     3     8   ar
     5     3     9   ar
     6     3     4    1
     7     5     9   ar
     8     5    11    1
     9     6     8   ar
    10     6     7    1
    11     8    12    1
    12     9    10    1
    13    11    20    2
    14    11    23    1
    15    13    14    1
    16    13    23   am
    17    13    24    1
    18    14    31    1
    19    14    34    1
    20    14    15    1
    21    16    24    1
    22    16    17    1
    23    16    18    1
    24    16    19    1
    25    20    21    1
    26    20    24    1
    27    21    40   ar
    28    21    45   ar
    29    22    23    2
    30    25    34    1
    31    25    37    1
    32    25    26    1
    33    25    27    1
    34    28    31    1
    35    28    37    1
    36    28    29    1
    37    28    30    1
    38    31    32    1
    39    31    33    1
    40    34    35    1
    41    34    36    1
    42    37    38    1
    43    37    39    1
    44    40    47   ar
    45    41    45   ar
    46    41    48   ar
    47    41    42    1
    48    43    47    1
    49    43    49    1
    50    43    44    1
    51    45    46    1
    52    47    48   ar
    53    49    51    1
    54    49    52    1
    55    49    50    1
    56    51    58   ar
    57    51    60   ar
    58    52    53    1
    59    52    54    1
    60    52    55    1
    61    56    62   ar
    62    56    64   ar
    63    56    57    1
    64    58    64   ar
    65    58    59    1
    66    60    62   ar
    67    60    61    1
    68    62    63    1
    69    64    65    1
@<TRIPOS>SUBSTRUCTURE
     1 RES1        1 GROUP             0 ****  ****    0  
@<TRIPOS>MOLECULE
LIGAND_00272
    65    69     1     0     0
SMALL
USER_CHARGES
****
Generated from the CSD

@<TRIPOS>ATOM
     1 C1       1.8677  -5.0597 -12.2279   C.ar      1 RES1   0.0000
     2 H2       2.5125  -5.6177 -12.8982   H         1 RES1   0.0000
     3 C3       0.2470  -3.5991 -10.5333   C.ar      1 RES1   0.0000
     4 H4      -0.3832  -3.0163  -9.8697   H         1 RES1   0.0000
     5 C5       0.4897  -5.2420 -12.2945   C.ar      1 RES1   0.0000
     6 C6       2.4342  -4.1755 -11.3268   C.ar      1 RES1   0.0000
     7 H7       3.5102  -4.0473 -11.2758   H         1 RES1   0.0000
     8 C8       1.6059  -3.4657 -10.5038   C.ar      1 RES1   0.0000
     9 C9      -0.3056  -4.4960 -11.4291   C.ar      1 RES1   0.0000
    10 H10     -1.3824  -4.6189 -11.4500   H         1 RES1   0.0000
    11 C11     -0.1387  -6.1933 -13.2678   C.2       1 RES1   0.0000
    12 F12      2.1558  -2.5903  -9.6188   F         1 RES1   0.0000
    13 N13     -1.2501  -7.9345 -14.1562   N.am      1 RES1   0.0000
    14 C14     -1.5328  -9.4013 -14.3146   C.3       1 RES1   0.0000
    15 H15     -1.2507  -9.6925 -15.3254   H         1 RES1   0.0000
    16 C16     -1.4129  -7.1061 -16.4207   C.3       1 RES1   0.0000
    17 H17     -0.7718  -7.0759 -17.2994   H         1 RES1   0.0000
    18 H18     -2.0917  -7.9499 -16.5259   H         1 RES1   0.0000
    19 H19     -2.0056  -6.1940 -16.4012   H         1 RES1   0.0000
    20 C20     -0.0279  -6.1202 -14.6126   C.2       1 RES1   0.0000
    21 C21      0.6269  -5.0726 -15.4374   C.ar      1 RES1   0.0000
    22 O22     -1.1776  -7.8683 -11.8605   O.2       1 RES1   0.0000
    23 C23     -0.9036  -7.3653 -12.9423   C.2       1 RES1   0.0000
    24 N24     -0.6147  -7.2301 -15.2006   N.3       1 RES1   0.0000
    25 C25     -0.9484 -11.7076 -13.4982   C.3       1 RES1   0.0000
    26 H26     -0.3712 -12.2586 -12.7571   H         1 RES1   0.0000
    27 H27     -0.6470 -12.0183 -14.4975   H         1 RES1   0.0000
    28 C28     -3.2591 -11.2249 -14.2595   C.3       1 RES1   0.0000
    29 H29     -3.0259 -11.5338 -15.2774   H         1 RES1   0.0000
    30 H30     -4.3066 -11.4343 -14.0476   H         1 RES1   0.0000
    31 C31     -3.0110  -9.7303 -14.1221   C.3       1 RES1   0.0000
    32 H32     -3.5945  -9.2018 -14.8745   H         1 RES1   0.0000
    33 H33     -3.3213  -9.4076 -13.1294   H         1 RES1   0.0000
    34 C34     -0.6926 -10.2196 -13.3333   C.3       1 RES1   0.0000
    35 H35     -0.9482  -9.9259 -12.3163   H         1 RES1   0.0000
    36 H36      0.3621 -10.0183 -13.5151   H         1 RES1   0.0000
    37 N37     -2.4038 -11.9920 -13.3068   N.4       1 RES1   1.0000
    38 H38     -2.6640 -11.7400 -12.3586   H         1 RES1   0.0000
    39 H39     -2.5644 -12.9840 -13.4495   H         1 RES1   0.0000
    40 N40      0.6201  -3.8247 -14.9431   N.ar      1 RES1   0.0000
    41 C41      1.7732  -4.2925 -17.3438   C.ar      1 RES1   0.0000
    42 H42      2.2393  -4.4886 -18.3038   H         1 RES1   0.0000
    43 N43      1.1615  -1.6123 -15.2087   N.pl3     1 RES1   0.0000
    44 H44      0.6764  -1.4497 -14.3264   H         1 RES1   0.0000
    45 C45      1.2088  -5.3536 -16.6650   C.ar      1 RES1   0.0000
    46 H46      1.2178  -6.3586 -17.0736   H         1 RES1   0.0000
    47 C47      1.1863  -2.8647 -15.6920   C.ar      1 RES1   0.0000
    48 N48      1.7765  -3.0345 -16.8841   N.ar      1 RES1   0.0000
    49 C49      1.7318  -0.4558 -15.8992   C.3       1 RES1   0.0000
    50 H50      1.6277  -0.6069 -16.9849   H         1 RES1   0.0000
    51 C51      3.2002  -0.2574 -15.5782   C.ar      1 RES1   0.0000
    52 C52      0.9179   0.7692 -15.4993   C.3       1 RES1   0.0000
    53 H53      1.2803   1.6579 -16.0118   H         1 RES1   0.0000
    54 H54     -0.1319   0.6366 -15.7526   H         1 RES1   0.0000
    55 H55      0.9882   0.9441 -14.4278   H         1 RES1   0.0000
    56 C56      5.8947   0.1088 -14.9733   C.ar      1 RES1   0.0000
    57 H57      6.9442   0.2507 -14.7377   H         1 RES1   0.0000
    58 C58      3.6113  -0.0397 -14.2711   C.ar      1 RES1   0.0000
    59 H59      2.8744  -0.0113 -13.4753   H         1 RES1   0.0000
    60 C60      4.1623  -0.2861 -16.5784   C.ar      1 RES1   0.0000
    61 H61      3.8646  -0.4529 -17.6082   H         1 RES1   0.0000
    62 C62      5.5013  -0.1042 -16.2761   C.ar      1 RES1   0.0000
    63 H63      6.2424  -0.1299 -17.0681   H         1 RES1   0.0000
    64 C64      4.9507   0.1412 -13.9706   C.ar      1 RES1   0.0000
    65 H65      5.2569   0.3086 -12.9434   H         1 RES1   0.0000
@<TRIPOS>BOND
     1     1     5   ar
     2     1     6   ar
     3     1     2    1
     4     3     8   ar
     5     3     9   ar
     6     3     4    1
     7     5     9   ar
     8     5    11    1
     9     6     8   ar
    10     6     7    1
    11     8    12    1
    12     9    10    1
    13    11    20    2
    14    11    23    1
    15    13    14    1
    16    13    23   am
    17    13    24    1
    18    14    31    1
    19    14    34    1
    20    14    15    1
    21    16    24    1
    22    16    17    1
    23    16    18    1
    24    16    19    1
    25    20    21    1
    26    20    24    1
    27    21    40   ar
    28    21    45   ar
    29    22    23    2
    30    25    34    1
    31    25    37    1
    32    25    26    1
    33    25    27    1
    34    28    31    1
    35    28    37    1
    36    28    29    1
    37    28    30    1
    38    31    32    1
    39    31    33    1
    40    34    35    1
    41    34    36    1
    42    37    38    1
    43    37    39    1
    44    40    47   ar
    45    41    45   ar
    46    41    48   ar
    47    41    42    1
    48    43    47    1
    49    43    49    1
    50    43    44    1
    51    45    46    1
    52    47    48   ar
    53    49    51    1
    54    49    52    1
    55    49    50    1
    56    51    58   ar
    57    51    60   ar
    58    52    53    1
    59    52    54    1
    60    52    55    1
    61    56    62   ar
    62    56    64   ar
    63    56    57    1
    64    58    64   ar
    65    58    59    1
    66    60    62   ar
    67    60    61    1
    68    62    63    1
    69    64    65    1
@<TRIPOS>SUBSTRUCTURE
     1 RES1        1 GROUP             0 ****  ****    0  
@<TRIPOS>MOLECULE
LIGAND_00273
    65    69     1     0     0
SMALL
USER_CHARGES
****
Generated from the CSD

@<TRIPOS>ATOM
     1 C1      -2.5296  -3.8313 -12.7640   C.ar      1 RES1   0.0000
     2 H2      -2.7702  -4.5142 -11.9564   H         1 RES1   0.0000
     3 C3      -1.8992  -2.0621 -14.7899   C.ar      1 RES1   0.0000
     4 H4      -1.6489  -1.3595 -15.5778   H         1 RES1   0.0000
     5 C5      -1.8268  -4.3000 -13.8700   C.ar      1 RES1   0.0000
     6 C6      -2.9240  -2.5084 -12.6695   C.ar      1 RES1   0.0000
     7 H7      -3.4799  -2.1545 -11.8077   H         1 RES1   0.0000
     8 C8      -2.5949  -1.6573 -13.6865   C.ar      1 RES1   0.0000
     9 C9      -1.5228  -3.3898 -14.8784   C.ar      1 RES1   0.0000
    10 H10     -0.9825  -3.7233 -15.7570   H         1 RES1   0.0000
    11 C11     -1.3896  -5.7293 -13.9848   C.2       1 RES1   0.0000
    12 F12     -2.9748  -0.3536 -13.5977   F         1 RES1   0.0000
    13 N13     -1.2407  -7.9411 -14.1539   N.am      1 RES1   0.0000
    14 C14     -1.5104  -9.4114 -14.3020   C.3       1 RES1   0.0000
    15 H15     -1.0873  -9.7386 -15.2506   H         1 RES1   0.0000
    16 C16      1.2400  -8.1612 -14.5728   C.3       1 RES1   0.0000
    17 H17      1.8561  -8.3723 -13.7012   H         1 RES1   0.0000
    18 H18      0.9625  -9.1094 -15.0288   H         1 RES1   0.0000
    19 H19      1.8421  -7.6042 -15.2875   H         1 RES1   0.0000
    20 C20     -0.0657  -6.0730 -14.1024   C.2       1 RES1   0.0000
    21 C21      1.1240  -5.1843 -14.0637   C.ar      1 RES1   0.0000
    22 O22     -3.3450  -7.1501 -13.9566   O.2       1 RES1   0.0000
    23 C23     -2.1403  -6.9416 -14.0162   C.2       1 RES1   0.0000
    24 N24      0.0499  -7.3986 -14.1942   N.pl3     1 RES1   0.0000
    25 C25     -1.0712 -11.6902 -13.3319   C.3       1 RES1   0.0000
    26 H26     -0.6126 -12.2174 -12.4966   H         1 RES1   0.0000
    27 H27     -0.6308 -12.0366 -14.2657   H         1 RES1   0.0000
    28 C28     -3.2427 -11.2253 -14.4368   C.3       1 RES1   0.0000
    29 H29     -2.8670 -11.5702 -15.3990   H         1 RES1   0.0000
    30 H30     -4.3116 -11.4231 -14.3724   H         1 RES1   0.0000
    31 C31     -3.0039  -9.7278 -14.3153   C.3       1 RES1   0.0000
    32 H32     -3.4673  -9.2234 -15.1619   H         1 RES1   0.0000
    33 H33     -3.4520  -9.3696 -13.3897   H         1 RES1   0.0000
    34 C34     -0.8289 -10.1984 -13.1820   C.3       1 RES1   0.0000
    35 H35     -1.2267  -9.8685 -12.2234   H         1 RES1   0.0000
    36 H36      0.2428 -10.0076 -13.2153   H         1 RES1   0.0000
    37 N37     -2.5415 -11.9621 -13.3445   N.4       1 RES1   1.0000
    38 H38     -2.9342 -11.6764 -12.4532   H         1 RES1   0.0000
    39 H39     -2.6885 -12.9578 -13.4754   H         1 RES1   0.0000
    40 N40      1.9023  -5.1714 -15.1572   N.ar      1 RES1   0.0000
    41 C41      2.5741  -3.6368 -13.0346   C.ar      1 RES1   0.0000
    42 H42      2.8344  -3.0190 -12.1815   H         1 RES1   0.0000
    43 N43      3.7858  -4.3937 -16.2088   N.pl3     1 RES1   0.0000
    44 H44      4.5927  -3.7699 -16.2136   H         1 RES1   0.0000
    45 C45      1.4342  -4.4110 -12.9546   C.ar      1 RES1   0.0000
    46 H46      0.8123  -4.4159 -12.0656   H         1 RES1   0.0000
    47 C47      2.9948  -4.3915 -15.1239   C.ar      1 RES1   0.0000
    48 N48      3.3772  -3.6066 -14.1060   N.ar      1 RES1   0.0000
    49 C49      3.5277  -5.1879 -17.4097   C.3       1 RES1   0.0000
    50 H50      2.4388  -5.2784 -17.5451   H         1 RES1   0.0000
    51 C51      4.1203  -6.5805 -17.3199   C.ar      1 RES1   0.0000
    52 C52      4.1034  -4.4282 -18.5990   C.3       1 RES1   0.0000
    53 H53      3.9102  -4.9609 -19.5278   H         1 RES1   0.0000
    54 H54      3.6596  -3.4379 -18.6779   H         1 RES1   0.0000
    55 H55      5.1798  -4.3095 -18.4945   H         1 RES1   0.0000
    56 C56      5.2233  -9.1332 -17.1531   C.ar      1 RES1   0.0000
    57 H57      5.6527 -10.1274 -17.0875   H         1 RES1   0.0000
    58 C58      5.4863  -6.7541 -17.1493   C.ar      1 RES1   0.0000
    59 H59      6.1324  -5.8852 -17.0806   H         1 RES1   0.0000
    60 C60      3.3159  -7.7083 -17.4080   C.ar      1 RES1   0.0000
    61 H61      2.2451  -7.5976 -17.5433   H         1 RES1   0.0000
    62 C62      3.8655  -8.9765 -17.3246   C.ar      1 RES1   0.0000
    63 H63      3.2244  -9.8490 -17.3945   H         1 RES1   0.0000
    64 C64      6.0340  -8.0229 -17.0654   C.ar      1 RES1   0.0000
    65 H65      7.1038  -8.1426 -16.9302   H         1 RES1   0.0000
@<TRIPOS>BOND
     1     1     5   ar
     2     1     6   ar
     3     1     2    1
     4     3     8   ar
     5     3     9   ar
     6     3     4    1
     7     5     9   ar
     8     5    11    1
     9     6     8   ar
    10     6     7    1
    11     8    12    1
    12     9    10    1
    13    11    20    2
    14    11    23    1
    15    13    14    1
    16    13    23   am
    17    13    24    1
    18    14    31    1
    19    14    34    1
    20    14    15    1
    21    16    24    1
    22    16    17    1
    23    16    18    1
    24    16    19    1
    25    20    21    1
    26    20    24    1
    27    21    40   ar
    28    21    45   ar
    29    22    23    2
    30    25    34    1
    31    25    37    1
    32    25    26    1
    33    25    27    1
    34    28    31    1
    35    28    37    1
    36    28    29    1
    37    28    30    1
    38    31    32    1
    39    31    33    1
    40    34    35    1
    41    34    36    1
    42    37    38    1
    43    37    39    1
    44    40    47   ar
    45    41    45   ar
    46    41    48   ar
    47    41    42    1
    48    43    47    1
    49    43    49    1
    50    43    44    1
    51    45    46    1
    52    47    48   ar
    53    49    51    1
    54    49    52    1
    55    49    50    1
    56    51    58   ar
    57    51    60   ar
    58    52    53    1
    59    52    54    1
    60    52    55    1
    61    56    62   ar
    62    56    64   ar
    63    56    57    1
    64    58    64   ar
    65    58    59    1
    66    60    62   ar
    67    60    61    1
    68    62    63    1
    69    64    65    1
@<TRIPOS>SUBSTRUCTURE
     1 RES1        1 GROUP             0 ****  ****    0  
@<TRIPOS>MOLECULE
LIGAND_00274
    65    69     1     0     0
SMALL
USER_CHARGES
****
Generated from the CSD

@<TRIPOS>ATOM
     1 C1      -1.4007  -3.4860 -12.8155   C.ar      1 RES1   0.0000
     2 H2      -0.7313  -3.8892 -12.0633   H         1 RES1   0.0000
     3 C3      -3.0769  -2.4228 -14.7369   C.ar      1 RES1   0.0000
     4 H4      -3.7290  -1.9958 -15.4916   H         1 RES1   0.0000
     5 C5      -1.8265  -4.3009 -13.8602   C.ar      1 RES1   0.0000
     6 C6      -1.8093  -2.1676 -12.7186   C.ar      1 RES1   0.0000
     7 H7      -1.4797  -1.5428 -11.8952   H         1 RES1   0.0000
     8 C8      -2.6363  -1.6701 -13.6859   C.ar      1 RES1   0.0000
     9 C9      -2.6721  -3.7428 -14.8147   C.ar      1 RES1   0.0000
    10 H10     -3.0280  -4.3519 -15.6378   H         1 RES1   0.0000
    11 C11     -1.3894  -5.7298 -13.9806   C.2       1 RES1   0.0000
    12 F12     -3.0378  -0.3727 -13.5999   F         1 RES1   0.0000
    13 N13     -1.2406  -7.9410 -14.1570   N.am      1 RES1   0.0000
    14 C14     -1.5106  -9.4109 -14.3092   C.3       1 RES1   0.0000
    15 H15     -1.0898  -9.7350 -15.2599   H         1 RES1   0.0000
    16 C16      1.2391  -8.1596 -14.5825   C.3       1 RES1   0.0000
    17 H17      1.8559  -8.3757 -13.7127   H         1 RES1   0.0000
    18 H18      0.9606  -9.1051 -15.0434   H         1 RES1   0.0000
    19 H19      1.8408  -7.5991 -15.2948   H         1 RES1   0.0000
    20 C20     -0.0657  -6.0730 -14.1024   C.2       1 RES1   0.0000
    21 C21      1.1240  -5.1843 -14.0637   C.ar      1 RES1   0.0000
    22 O22     -3.3445  -7.1509 -13.9523   O.2       1 RES1   0.0000
    23 C23     -2.1400  -6.9421 -14.0140   C.2       1 RES1   0.0000
    24 N24      0.0498  -7.3983 -14.1986   N.pl3     1 RES1   0.0000
    25 C25     -1.0687 -11.6927 -13.3474   C.3       1 RES1   0.0000
    26 H26     -0.6080 -12.2225 -12.5150   H         1 RES1   0.0000
    27 H27     -0.6306 -12.0361 -14.2834   H         1 RES1   0.0000
    28 C28     -3.2429 -11.2245 -14.4455   C.3       1 RES1   0.0000
    29 H29     -2.8696 -11.5663 -15.4097   H         1 RES1   0.0000
    30 H30     -4.3117 -11.4227 -14.3791   H         1 RES1   0.0000
    31 C31     -3.0040  -9.7274 -14.3198   C.3       1 RES1   0.0000
    32 H32     -3.4695  -9.2204 -15.1637   H         1 RES1   0.0000
    33 H33     -3.4499  -9.3722 -13.3920   H         1 RES1   0.0000
    34 C34     -0.8261 -10.2014 -13.1933   C.3       1 RES1   0.0000
    35 H35     -1.2216  -9.8747 -12.2327   H         1 RES1   0.0000
    36 H36      0.2454 -10.0104 -13.2287   H         1 RES1   0.0000
    37 N37     -2.5390 -11.9647 -13.3573   N.4       1 RES1   1.0000
    38 H38     -2.9295 -11.6819 -12.4642   H         1 RES1   0.0000
    39 H39     -2.6862 -12.9601 -13.4910   H         1 RES1   0.0000
    40 N40      2.0256  -5.4261 -13.0991   N.ar      1 RES1   0.0000
    41 C41      2.4404  -3.3801 -14.8176   C.ar      1 RES1   0.0000
    42 H42      2.6033  -2.5644 -15.5144   H         1 RES1   0.0000
    43 N43      3.9844  -4.8403 -12.0608   N.pl3     1 RES1   0.0000
    44 H44      4.8220  -4.2589 -12.0331   H         1 RES1   0.0000
    45 C45      1.3007  -4.1448 -14.9650   C.ar      1 RES1   0.0000
    46 H46      0.5769  -3.9404 -15.7469   H         1 RES1   0.0000
    47 C47      3.0924  -4.6130 -13.0382   C.ar      1 RES1   0.0000
    48 N48      3.3555  -3.5881 -13.8620   N.ar      1 RES1   0.0000
    49 C49      3.8610  -5.9103 -11.0711   C.3       1 RES1   0.0000
    50 H50      3.3597  -6.7700 -11.5422   H         1 RES1   0.0000
    51 C51      3.0551  -5.4863  -9.8590   C.ar      1 RES1   0.0000
    52 C52      5.2692  -6.3310 -10.6672   C.3       1 RES1   0.0000
    53 H53      5.2373  -7.1510  -9.9527   H         1 RES1   0.0000
    54 H54      5.8394  -6.6589 -11.5339   H         1 RES1   0.0000
    55 H55      5.8008  -5.5011 -10.2063   H         1 RES1   0.0000
    56 C56      1.5844  -4.6959  -7.6291   C.ar      1 RES1   0.0000
    57 H57      1.0112  -4.3877  -6.7610   H         1 RES1   0.0000
    58 C58      3.4717  -4.4201  -9.0750   C.ar      1 RES1   0.0000
    59 H59      4.3815  -3.8883  -9.3335   H         1 RES1   0.0000
    60 C60      1.8895  -6.1520  -9.5052   C.ar      1 RES1   0.0000
    61 H61      1.5448  -6.9898 -10.1021   H         1 RES1   0.0000
    62 C62      1.1593  -5.7578  -8.3967   C.ar      1 RES1   0.0000
    63 H63      0.2499  -6.2870  -8.1326   H         1 RES1   0.0000
    64 C64      2.7400  -4.0268  -7.9675   C.ar      1 RES1   0.0000
    65 H65      3.0777  -3.1900  -7.3652   H         1 RES1   0.0000
@<TRIPOS>BOND
     1     1     5   ar
     2     1     6   ar
     3     1     2    1
     4     3     8   ar
     5     3     9   ar
     6     3     4    1
     7     5     9   ar
     8     5    11    1
     9     6     8   ar
    10     6     7    1
    11     8    12    1
    12     9    10    1
    13    11    20    2
    14    11    23    1
    15    13    14    1
    16    13    23   am
    17    13    24    1
    18    14    31    1
    19    14    34    1
    20    14    15    1
    21    16    24    1
    22    16    17    1
    23    16    18    1
    24    16    19    1
    25    20    21    1
    26    20    24    1
    27    21    40   ar
    28    21    45   ar
    29    22    23    2
    30    25    34    1
    31    25    37    1
    32    25    26    1
    33    25    27    1
    34    28    31    1
    35    28    37    1
    36    28    29    1
    37    28    30    1
    38    31    32    1
    39    31    33    1
    40    34    35    1
    41    34    36    1
    42    37    38    1
    43    37    39    1
    44    40    47   ar
    45    41    45   ar
    46    41    48   ar
    47    41    42    1
    48    43    47    1
    49    43    49    1
    50    43    44    1
    51    45    46    1
    52    47    48   ar
    53    49    51    1
    54    49    52    1
    55    49    50    1
    56    51    58   ar
    57    51    60   ar
    58    52    53    1
    59    52    54    1
    60    52    55    1
    61    56    62   ar
    62    56    64   ar
    63    56    57    1
    64    58    64   ar
    65    58    59    1
    66    60    62   ar
    67    60    61    1
    68    62    63    1
    69    64    65    1
@<TRIPOS>SUBSTRUCTURE
     1 RES1        1 GROUP             0 ****  ****    0  
@<TRIPOS>MOLECULE
LIGAND_00275
    65    69     1     0     0
SMALL
USER_CHARGES
****
Generated from the CSD

@<TRIPOS>ATOM
     1 C1      -2.7111  -3.7027 -15.4395   C.ar      1 RES1   0.0000
     2 H2      -3.6201  -4.0714 -14.9767   H         1 RES1   0.0000
     3 C3      -0.4021  -2.7227 -16.5970   C.ar      1 RES1   0.0000
     4 H4       0.5023  -2.3276 -17.0477   H         1 RES1   0.0000
     5 C5      -1.5425  -4.4525 -15.3452   C.ar      1 RES1   0.0000
     6 C6      -2.7371  -2.4913 -16.1076   C.ar      1 RES1   0.0000
     7 H7      -3.6553  -1.9185 -16.1841   H         1 RES1   0.0000
     8 C8      -1.5782  -2.0321 -16.6674   C.ar      1 RES1   0.0000
     9 C9      -0.3927  -3.9385 -15.9381   C.ar      1 RES1   0.0000
    10 H10      0.5331  -4.5004 -15.8893   H         1 RES1   0.0000
    11 C11     -1.4979  -5.7646 -14.6215   C.2       1 RES1   0.0000
    12 F12     -1.5952  -0.8389 -17.3213   F         1 RES1   0.0000
    13 N13     -1.3295  -7.9594 -14.1624   N.am      1 RES1   0.0000
    14 C14     -1.6968  -9.4014 -14.3677   C.3       1 RES1   0.0000
    15 H15     -1.3540  -9.6998 -15.3573   H         1 RES1   0.0000
    16 C16     -1.1522  -7.7848 -11.7585   C.3       1 RES1   0.0000
    17 H17     -1.8255  -8.4699 -11.2475   H         1 RES1   0.0000
    18 H18     -0.2244  -8.3138 -11.9660   H         1 RES1   0.0000
    19 H19     -0.9295  -6.9610 -11.0837   H         1 RES1   0.0000
    20 C20     -1.7513  -5.9390 -13.3057   C.2       1 RES1   0.0000
    21 C21     -2.0254  -4.9138 -12.2663   C.ar      1 RES1   0.0000
    22 O22     -1.0548  -7.3815 -16.3694   O.2       1 RES1   0.0000
    23 C23     -1.2435  -7.0526 -15.2055   C.2       1 RES1   0.0000
    24 N24     -1.7566  -7.2903 -12.9960   N.3       1 RES1   0.0000
    25 C25     -1.3377 -11.7515 -13.5460   C.3       1 RES1   0.0000
    26 H26     -0.8611 -12.3492 -12.7705   H         1 RES1   0.0000
    27 H27     -0.9779 -12.0708 -14.5230   H         1 RES1   0.0000
    28 C28     -3.5412 -11.1027 -14.4820   C.3       1 RES1   0.0000
    29 H29     -3.2475 -11.4152 -15.4830   H         1 RES1   0.0000
    30 H30     -4.6141 -11.2421 -14.3583   H         1 RES1   0.0000
    31 C31     -3.2047  -9.6303 -14.2999   C.3       1 RES1   0.0000
    32 H32     -3.6881  -9.0545 -15.0876   H         1 RES1   0.0000
    33 H33     -3.5720  -9.2984 -13.3299   H         1 RES1   0.0000
    34 C34     -0.9963 -10.2865 -13.3361   C.3       1 RES1   0.0000
    35 H35     -1.3131  -9.9876 -12.3380   H         1 RES1   0.0000
    36 H36      0.0809 -10.1561 -13.4293   H         1 RES1   0.0000
    37 N37     -2.8197 -11.9374 -13.4768   N.4       1 RES1   1.0000
    38 H38     -3.1384 -11.6790 -12.5484   H         1 RES1   0.0000
    39 H39     -3.0348 -12.9144 -13.6486   H         1 RES1   0.0000
    40 N40     -1.1072  -4.7783 -11.2966   N.ar      1 RES1   0.0000
    41 C41     -3.3226  -3.2287 -11.2491   C.ar      1 RES1   0.0000
    42 H42     -4.2112  -2.6061 -11.2397   H         1 RES1   0.0000
    43 N43     -0.4495  -3.7510  -9.3549   N.pl3     1 RES1   0.0000
    44 H44      0.3628  -4.3675  -9.3751   H         1 RES1   0.0000
    45 C45     -3.1749  -4.1373 -12.2777   C.ar      1 RES1   0.0000
    46 H46     -3.9235  -4.2406 -13.0562   H         1 RES1   0.0000
    47 C47     -1.3567  -3.8727 -10.3371   C.ar      1 RES1   0.0000
    48 N48     -2.4311  -3.0737 -10.2618   N.ar      1 RES1   0.0000
    49 C49     -0.5842  -2.8335  -8.2237   C.3       1 RES1   0.0000
    50 H50     -0.7415  -1.8154  -8.6124   H         1 RES1   0.0000
    51 C51      0.6445  -2.8266  -7.3356   C.ar      1 RES1   0.0000
    52 C52     -1.8214  -3.2490  -7.4363   C.3       1 RES1   0.0000
    53 H53     -1.7389  -2.9405  -6.3962   H         1 RES1   0.0000
    54 H54     -2.7174  -2.7948  -7.8543   H         1 RES1   0.0000
    55 H55     -1.9469  -4.3294  -7.4599   H         1 RES1   0.0000
    56 C56      2.8962  -2.8257  -5.6954   C.ar      1 RES1   0.0000
    57 H57      3.7735  -2.8257  -5.0571   H         1 RES1   0.0000
    58 C58      0.7530  -3.7181  -6.2780   C.ar      1 RES1   0.0000
    59 H59     -0.0490  -4.4235  -6.0873   H         1 RES1   0.0000
    60 C60      1.6829  -1.9323  -7.5563   C.ar      1 RES1   0.0000
    61 H61      1.6197  -1.2245  -8.3762   H         1 RES1   0.0000
    62 C62      2.8016  -1.9332  -6.7405   C.ar      1 RES1   0.0000
    63 H63      3.6058  -1.2288  -6.9253   H         1 RES1   0.0000
    64 C64      1.8727  -3.7180  -5.4637   C.ar      1 RES1   0.0000
    65 H65      1.9439  -4.4224  -4.6416   H         1 RES1   0.0000
@<TRIPOS>BOND
     1     1     5   ar
     2     1     6   ar
     3     1     2    1
     4     3     8   ar
     5     3     9   ar
     6     3     4    1
     7     5     9   ar
     8     5    11    1
     9     6     8   ar
    10     6     7    1
    11     8    12    1
    12     9    10    1
    13    11    20    2
    14    11    23    1
    15    13    14    1
    16    13    23   am
    17    13    24    1
    18    14    31    1
    19    14    34    1
    20    14    15    1
    21    16    24    1
    22    16    17    1
    23    16    18    1
    24    16    19    1
    25    20    21    1
    26    20    24    1
    27    21    40   ar
    28    21    45   ar
    29    22    23    2
    30    25    34    1
    31    25    37    1
    32    25    26    1
    33    25    27    1
    34    28    31    1
    35    28    37    1
    36    28    29    1
    37    28    30    1
    38    31    32    1
    39    31    33    1
    40    34    35    1
    41    34    36    1
    42    37    38    1
    43    37    39    1
    44    40    47   ar
    45    41    45   ar
    46    41    48   ar
    47    41    42    1
    48    43    47    1
    49    43    49    1
    50    43    44    1
    51    45    46    1
    52    47    48   ar
    53    49    51    1
    54    49    52    1
    55    49    50    1
    56    51    58   ar
    57    51    60   ar
    58    52    53    1
    59    52    54    1
    60    52    55    1
    61    56    62   ar
    62    56    64   ar
    63    56    57    1
    64    58    64   ar
    65    58    59    1
    66    60    62   ar
    67    60    61    1
    68    62    63    1
    69    64    65    1
@<TRIPOS>SUBSTRUCTURE
     1 RES1        1 GROUP             0 ****  ****    0  
@<TRIPOS>MOLECULE
LIGAND_00276
    65    69     1     0     0
SMALL
USER_CHARGES
****
Generated from the CSD

@<TRIPOS>ATOM
     1 C1      -0.7027  -3.3903 -14.9781   C.ar      1 RES1   0.0000
     2 H2      -1.7635  -3.4211 -14.7543   H         1 RES1   0.0000
     3 C3       2.0037  -3.2747 -15.5205   C.ar      1 RES1   0.0000
     4 H4       3.0672  -3.2194 -15.7282   H         1 RES1   0.0000
     5 C5       0.0599  -4.5461 -14.8386   C.ar      1 RES1   0.0000
     6 C6      -0.1343  -2.1985 -15.3916   C.ar      1 RES1   0.0000
     7 H7      -0.7388  -1.3050 -15.5067   H         1 RES1   0.0000
     8 C8       1.2073  -2.1727 -15.6497   C.ar      1 RES1   0.0000
     9 C9       1.4207  -4.4628 -15.1196   C.ar      1 RES1   0.0000
    10 H10      2.0424  -5.3462 -15.0278   H         1 RES1   0.0000
    11 C11     -0.5410  -5.8434 -14.3880   C.2       1 RES1   0.0000
    12 F12      1.7741  -1.0026 -16.0515   F         1 RES1   0.0000
    13 N13     -1.2406  -7.9410 -14.1570   N.am      1 RES1   0.0000
    14 C14     -1.5106  -9.4109 -14.3092   C.3       1 RES1   0.0000
    15 H15     -1.0788  -9.7377 -15.2540   H         1 RES1   0.0000
    16 C16     -2.0882  -7.8386 -11.7803   C.3       1 RES1   0.0000
    17 H17     -2.6363  -7.1178 -11.1771   H         1 RES1   0.0000
    18 H18     -2.7548  -8.6689 -12.0043   H         1 RES1   0.0000
    19 H19     -1.2602  -8.2190 -11.1859   H         1 RES1   0.0000
    20 C20     -1.1594  -5.9688 -13.1688   C.2       1 RES1   0.0000
    21 C21     -1.4160  -4.9157 -12.1531   C.ar      1 RES1   0.0000
    22 O22     -0.1808  -7.5094 -16.1020   O.2       1 RES1   0.0000
    23 C23     -0.6007  -7.1206 -15.0199   C.2       1 RES1   0.0000
    24 N24     -1.5984  -7.2184 -13.0119   N.pl3     1 RES1   0.0000
    25 C25     -1.0832 -11.6911 -13.3372   C.3       1 RES1   0.0000
    26 H26     -0.6331 -12.2196 -12.4981   H         1 RES1   0.0000
    27 H27     -0.6343 -12.0371 -14.2671   H         1 RES1   0.0000
    28 C28     -3.2435 -11.2227 -14.4623   C.3       1 RES1   0.0000
    29 H29     -2.8590 -11.5671 -15.4212   H         1 RES1   0.0000
    30 H30     -4.3132 -11.4194 -14.4083   H         1 RES1   0.0000
    31 C31     -3.0042  -9.7256 -14.3371   C.3       1 RES1   0.0000
    32 H32     -3.4589  -9.2199 -15.1876   H         1 RES1   0.0000
    33 H33     -3.4608  -9.3678 -13.4154   H         1 RES1   0.0000
    34 C34     -0.8406 -10.1997 -13.1835   C.3       1 RES1   0.0000
    35 H35     -1.2472  -9.8704 -12.2284   H         1 RES1   0.0000
    36 H36      0.2315 -10.0101 -13.2063   H         1 RES1   0.0000
    37 N37     -2.5535 -11.9614 -13.3641   N.4       1 RES1   1.0000
    38 H38     -2.9544 -11.6761 -12.4764   H         1 RES1   0.0000
    39 H39     -2.7004 -12.9568 -13.4974   H         1 RES1   0.0000
    40 N40     -0.4619  -4.7249 -11.2286   N.ar      1 RES1   0.0000
    41 C41     -2.7124  -3.2288 -11.1379   C.ar      1 RES1   0.0000
    42 H42     -3.6155  -2.6280 -11.1111   H         1 RES1   0.0000
    43 N43      0.2500  -3.6161  -9.3518   N.pl3     1 RES1   0.0000
    44 H44      1.0670  -4.2263  -9.3744   H         1 RES1   0.0000
    45 C45     -2.5846  -4.1682 -12.1411   C.ar      1 RES1   0.0000
    46 H46     -3.3622  -4.3161 -12.8831   H         1 RES1   0.0000
    47 C47     -0.6941  -3.7933 -10.2898   C.ar      1 RES1   0.0000
    48 N48     -1.7846  -3.0185 -10.1952   N.ar      1 RES1   0.0000
    49 C49      0.1509  -2.6453  -8.2622   C.3       1 RES1   0.0000
    50 H50     -0.9072  -2.5452  -7.9745   H         1 RES1   0.0000
    51 C51      0.6752  -1.2785  -8.6565   C.ar      1 RES1   0.0000
    52 C52      0.9263  -3.2028  -7.0743   C.3       1 RES1   0.0000
    53 H53      0.8587  -2.5324  -6.2200   H         1 RES1   0.0000
    54 H54      0.5337  -4.1725  -6.7757   H         1 RES1   0.0000
    55 H55      1.9777  -3.3259  -7.3255   H         1 RES1   0.0000
    56 C56      1.6353   1.2383  -9.3667   C.ar      1 RES1   0.0000
    57 H57      2.0099   2.2182  -9.6432   H         1 RES1   0.0000
    58 C58      0.6603  -0.2303  -7.7476   C.ar      1 RES1   0.0000
    59 H59      0.2695  -0.3929  -6.7485   H         1 RES1   0.0000
    60 C60      1.1773  -1.0437  -9.9291   C.ar      1 RES1   0.0000
    61 H61      1.1975  -1.8476 -10.6574   H         1 RES1   0.0000
    62 C62      1.6546   0.2077 -10.2806   C.ar      1 RES1   0.0000
    63 H63      2.0448   0.3764 -11.2787   H         1 RES1   0.0000
    64 C64      1.1386   1.0201  -8.1005   C.ar      1 RES1   0.0000
    65 H65      1.1220   1.8294  -7.3782   H         1 RES1   0.0000
@<TRIPOS>BOND
     1     1     5   ar
     2     1     6   ar
     3     1     2    1
     4     3     8   ar
     5     3     9   ar
     6     3     4    1
     7     5     9   ar
     8     5    11    1
     9     6     8   ar
    10     6     7    1
    11     8    12    1
    12     9    10    1
    13    11    20    2
    14    11    23    1
    15    13    14    1
    16    13    23   am
    17    13    24    1
    18    14    31    1
    19    14    34    1
    20    14    15    1
    21    16    24    1
    22    16    17    1
    23    16    18    1
    24    16    19    1
    25    20    21    1
    26    20    24    1
    27    21    40   ar
    28    21    45   ar
    29    22    23    2
    30    25    34    1
    31    25    37    1
    32    25    26    1
    33    25    27    1
    34    28    31    1
    35    28    37    1
    36    28    29    1
    37    28    30    1
    38    31    32    1
    39    31    33    1
    40    34    35    1
    41    34    36    1
    42    37    38    1
    43    37    39    1
    44    40    47   ar
    45    41    45   ar
    46    41    48   ar
    47    41    42    1
    48    43    47    1
    49    43    49    1
    50    43    44    1
    51    45    46    1
    52    47    48   ar
    53    49    51    1
    54    49    52    1
    55    49    50    1
    56    51    58   ar
    57    51    60   ar
    58    52    53    1
    59    52    54    1
    60    52    55    1
    61    56    62   ar
    62    56    64   ar
    63    56    57    1
    64    58    64   ar
    65    58    59    1
    66    60    62   ar
    67    60    61    1
    68    62    63    1
    69    64    65    1
@<TRIPOS>SUBSTRUCTURE
     1 RES1        1 GROUP             0 ****  ****    0  
@<TRIPOS>MOLECULE
LIGAND_00277
    65    69     1     0     0
SMALL
USER_CHARGES
****
Generated from the CSD

@<TRIPOS>ATOM
     1 C1      -2.7626  -4.3549 -16.3843   C.ar      1 RES1   0.0000
     2 H2      -3.3864  -5.2036 -16.6430   H         1 RES1   0.0000
     3 C3      -1.2118  -2.1668 -15.7216   C.ar      1 RES1   0.0000
     4 H4      -0.6118  -1.3009 -15.4620   H         1 RES1   0.0000
     5 C5      -1.8081  -4.4879 -15.3803   C.ar      1 RES1   0.0000
     6 C6      -2.9372  -3.1587 -17.0576   C.ar      1 RES1   0.0000
     7 H7      -3.6773  -3.0674 -17.8455   H         1 RES1   0.0000
     8 C8      -2.1567  -2.0939 -16.7051   C.ar      1 RES1   0.0000
     9 C9      -1.0379  -3.3718 -15.0659   C.ar      1 RES1   0.0000
    10 H10     -0.2806  -3.4430 -14.2935   H         1 RES1   0.0000
    11 C11     -1.6100  -5.7761 -14.6397   C.2       1 RES1   0.0000
    12 F12     -2.3267  -0.9128 -17.3592   F         1 RES1   0.0000
    13 N13     -1.2408  -7.9411 -14.1570   N.am      1 RES1   0.0000
    14 C14     -1.5108  -9.4109 -14.3093   C.3       1 RES1   0.0000
    15 H15     -1.2175  -9.7058 -15.3157   H         1 RES1   0.0000
    16 C16     -0.9001  -7.6989 -11.7767   C.3       1 RES1   0.0000
    17 H17     -1.4826  -8.4150 -11.2007   H         1 RES1   0.0000
    18 H18      0.0441  -8.1684 -12.0449   H         1 RES1   0.0000
    19 H19     -0.6851  -6.8444 -11.1385   H         1 RES1   0.0000
    20 C20     -1.7513  -5.9390 -13.3057   C.2       1 RES1   0.0000
    21 C21     -2.0254  -4.9138 -12.2663   C.ar      1 RES1   0.0000
    22 O22     -1.1750  -7.3947 -16.3880   O.2       1 RES1   0.0000
    23 C23     -1.3017  -7.0544 -15.2191   C.2       1 RES1   0.0000
    24 N24     -1.6304  -7.2795 -12.9734   N.3       1 RES1   0.0000
    25 C25     -0.9164 -11.7078 -13.4740   C.3       1 RES1   0.0000
    26 H26     -0.3417 -12.2500 -12.7246   H         1 RES1   0.0000
    27 H27     -0.6036 -12.0221 -14.4687   H         1 RES1   0.0000
    28 C28     -3.2237 -11.2473 -14.2589   C.3       1 RES1   0.0000
    29 H29     -2.9791 -11.5603 -15.2728   H         1 RES1   0.0000
    30 H30     -4.2715 -11.4634 -14.0551   H         1 RES1   0.0000
    31 C31     -2.9883  -9.7501 -14.1280   C.3       1 RES1   0.0000
    32 H32     -3.5689  -9.2304 -14.8888   H         1 RES1   0.0000
    33 H33     -3.3099  -9.4240 -13.1401   H         1 RES1   0.0000
    34 C34     -0.6734 -10.2170 -13.3157   C.3       1 RES1   0.0000
    35 H35     -0.9403  -9.9193 -12.3027   H         1 RES1   0.0000
    36 H36      0.3813 -10.0087 -13.4892   H         1 RES1   0.0000
    37 N37     -2.3712 -12.0022 -13.2940   N.4       1 RES1   1.0000
    38 H38     -2.6418 -11.7467 -12.3497   H         1 RES1   0.0000
    39 H39     -2.5230 -12.9962 -13.4322   H         1 RES1   0.0000
    40 N40     -0.9580  -4.3300 -11.6994   N.ar      1 RES1   0.0000
    41 C41     -3.4397  -3.6190 -10.8951   C.ar      1 RES1   0.0000
    42 H42     -4.4387  -3.3344 -10.5815   H         1 RES1   0.0000
    43 N43     -0.1258  -2.8511 -10.1571   N.pl3     1 RES1   0.0000
    44 H44     -0.2924  -2.1394  -9.4458   H         1 RES1   0.0000
    45 C45     -3.3148  -4.5762 -11.8818   C.ar      1 RES1   0.0000
    46 H46     -4.1838  -5.0436 -12.3329   H         1 RES1   0.0000
    47 C47     -1.1929  -3.4204 -10.7400   C.ar      1 RES1   0.0000
    48 N48     -2.3968  -3.0232 -10.3026   N.ar      1 RES1   0.0000
    49 C49      1.2603  -3.1419 -10.5226   C.3       1 RES1   0.0000
    50 H50      1.4287  -4.2262 -10.4317   H         1 RES1   0.0000
    51 C51      2.2556  -2.4226  -9.6335   C.ar      1 RES1   0.0000
    52 C52      1.4472  -2.7424 -11.9816   C.3       1 RES1   0.0000
    53 H53      2.4880  -2.4989 -12.1850   H         1 RES1   0.0000
    54 H54      1.1526  -3.5520 -12.6460   H         1 RES1   0.0000
    55 H55      0.8425  -1.8703 -12.2216   H         1 RES1   0.0000
    56 C56      4.0744  -1.0891  -7.9984   C.ar      1 RES1   0.0000
    57 H57      4.7826  -0.5701  -7.3610   H         1 RES1   0.0000
    58 C58      1.9601  -1.1691  -9.1174   C.ar      1 RES1   0.0000
    59 H59      1.0095  -0.7026  -9.3540   H         1 RES1   0.0000
    60 C60      3.4797  -2.9963  -9.3184   C.ar      1 RES1   0.0000
    61 H61      3.7337  -3.9750  -9.7117   H         1 RES1   0.0000
    62 C62      4.3826  -2.3324  -8.5052   C.ar      1 RES1   0.0000
    63 H63      5.3354  -2.7932  -8.2667   H         1 RES1   0.0000
    64 C64      2.8639  -0.5071  -8.3039   C.ar      1 RES1   0.0000
    65 H65      2.6178   0.4719  -7.9064   H         1 RES1   0.0000
@<TRIPOS>BOND
     1     1     5   ar
     2     1     6   ar
     3     1     2    1
     4     3     8   ar
     5     3     9   ar
     6     3     4    1
     7     5     9   ar
     8     5    11    1
     9     6     8   ar
    10     6     7    1
    11     8    12    1
    12     9    10    1
    13    11    20    2
    14    11    23    1
    15    13    14    1
    16    13    23   am
    17    13    24    1
    18    14    31    1
    19    14    34    1
    20    14    15    1
    21    16    24    1
    22    16    17    1
    23    16    18    1
    24    16    19    1
    25    20    21    1
    26    20    24    1
    27    21    40   ar
    28    21    45   ar
    29    22    23    2
    30    25    34    1
    31    25    37    1
    32    25    26    1
    33    25    27    1
    34    28    31    1
    35    28    37    1
    36    28    29    1
    37    28    30    1
    38    31    32    1
    39    31    33    1
    40    34    35    1
    41    34    36    1
    42    37    38    1
    43    37    39    1
    44    40    47   ar
    45    41    45   ar
    46    41    48   ar
    47    41    42    1
    48    43    47    1
    49    43    49    1
    50    43    44    1
    51    45    46    1
    52    47    48   ar
    53    49    51    1
    54    49    52    1
    55    49    50    1
    56    51    58   ar
    57    51    60   ar
    58    52    53    1
    59    52    54    1
    60    52    55    1
    61    56    62   ar
    62    56    64   ar
    63    56    57    1
    64    58    64   ar
    65    58    59    1
    66    60    62   ar
    67    60    61    1
    68    62    63    1
    69    64    65    1
@<TRIPOS>SUBSTRUCTURE
     1 RES1        1 GROUP             0 ****  ****    0  
@<TRIPOS>MOLECULE
LIGAND_00278
    65    69     1     0     0
SMALL
USER_CHARGES
****
Generated from the CSD

@<TRIPOS>ATOM
     1 C1      -3.0248  -3.8117 -15.3691   C.ar      1 RES1   0.0000
     2 H2      -3.8579  -4.2218 -14.8086   H         1 RES1   0.0000
     3 C3      -0.9094  -2.7260 -16.7756   C.ar      1 RES1   0.0000
     4 H4      -0.0813  -2.2894 -17.3241   H         1 RES1   0.0000
     5 C5      -1.8085  -4.4880 -15.3803   C.ar      1 RES1   0.0000
     6 C6      -3.1929  -2.6215 -16.0545   C.ar      1 RES1   0.0000
     7 H7      -4.1477  -2.1065 -16.0477   H         1 RES1   0.0000
     8 C8      -2.1271  -2.1087 -16.7387   C.ar      1 RES1   0.0000
     9 C9      -0.7584  -3.9218 -16.0977   C.ar      1 RES1   0.0000
    10 H10      0.2005  -4.4262 -16.1329   H         1 RES1   0.0000
    11 C11     -1.6101  -5.7761 -14.6397   C.2       1 RES1   0.0000
    12 F12     -2.2837  -0.9357 -17.4105   F         1 RES1   0.0000
    13 N13     -1.2406  -7.9410 -14.1570   N.am      1 RES1   0.0000
    14 C14     -1.5106  -9.4109 -14.3092   C.3       1 RES1   0.0000
    15 H15     -1.2171  -9.7059 -15.3156   H         1 RES1   0.0000
    16 C16     -0.8997  -7.6987 -11.7768   C.3       1 RES1   0.0000
    17 H17     -1.4821  -8.4149 -11.2007   H         1 RES1   0.0000
    18 H18      0.0445  -8.1681 -12.0450   H         1 RES1   0.0000
    19 H19     -0.6847  -6.8442 -11.1386   H         1 RES1   0.0000
    20 C20     -1.7513  -5.9390 -13.3057   C.2       1 RES1   0.0000
    21 C21     -2.0254  -4.9138 -12.2663   C.ar      1 RES1   0.0000
    22 O22     -1.1751  -7.3947 -16.3880   O.2       1 RES1   0.0000
    23 C23     -1.3018  -7.0544 -15.2191   C.2       1 RES1   0.0000
    24 N24     -1.6302  -7.2794 -12.9734   N.3       1 RES1   0.0000
    25 C25     -0.9159 -11.7077 -13.4737   C.3       1 RES1   0.0000
    26 H26     -0.3412 -12.2498 -12.7242   H         1 RES1   0.0000
    27 H27     -0.6031 -12.0220 -14.4684   H         1 RES1   0.0000
    28 C28     -3.2233 -11.2475 -14.2588   C.3       1 RES1   0.0000
    29 H29     -2.9785 -11.5605 -15.2727   H         1 RES1   0.0000
    30 H30     -4.2710 -11.4637 -14.0551   H         1 RES1   0.0000
    31 C31     -2.9879  -9.7502 -14.1280   C.3       1 RES1   0.0000
    32 H32     -3.5686  -9.2307 -14.8888   H         1 RES1   0.0000
    33 H33     -3.3097  -9.4241 -13.1401   H         1 RES1   0.0000
    34 C34     -0.6731 -10.2168 -13.3155   C.3       1 RES1   0.0000
    35 H35     -0.9401  -9.9191 -12.3026   H         1 RES1   0.0000
    36 H36      0.3816 -10.0084 -13.4889   H         1 RES1   0.0000
    37 N37     -2.3708 -12.0022 -13.2938   N.4       1 RES1   1.0000
    38 H38     -2.6415 -11.7467 -12.3495   H         1 RES1   0.0000
    39 H39     -2.5224 -12.9963 -13.4320   H         1 RES1   0.0000
    40 N40     -0.9580  -4.3300 -11.6994   N.ar      1 RES1   0.0000
    41 C41     -3.4397  -3.6190 -10.8951   C.ar      1 RES1   0.0000
    42 H42     -4.4387  -3.3344 -10.5815   H         1 RES1   0.0000
    43 N43     -0.1258  -2.8511 -10.1571   N.pl3     1 RES1   0.0000
    44 H44     -0.2924  -2.1394  -9.4457   H         1 RES1   0.0000
    45 C45     -3.3148  -4.5762 -11.8818   C.ar      1 RES1   0.0000
    46 H46     -4.1838  -5.0436 -12.3329   H         1 RES1   0.0000
    47 C47     -1.1929  -3.4204 -10.7400   C.ar      1 RES1   0.0000
    48 N48     -2.3968  -3.0232 -10.3026   N.ar      1 RES1   0.0000
    49 C49      1.2603  -3.1419 -10.5227   C.3       1 RES1   0.0000
    50 H50      1.4287  -4.2262 -10.4318   H         1 RES1   0.0000
    51 C51      2.2556  -2.4226  -9.6335   C.ar      1 RES1   0.0000
    52 C52      1.4472  -2.7422 -11.9816   C.3       1 RES1   0.0000
    53 H53      2.4875  -2.4968 -12.1846   H         1 RES1   0.0000
    54 H54      1.1545  -3.5525 -12.6461   H         1 RES1   0.0000
    55 H55      0.8410  -1.8713 -12.2221   H         1 RES1   0.0000
    56 C56      4.0744  -1.0891  -7.9984   C.ar      1 RES1   0.0000
    57 H57      4.7826  -0.5702  -7.3609   H         1 RES1   0.0000
    58 C58      1.9601  -1.1691  -9.1173   C.ar      1 RES1   0.0000
    59 H59      1.0095  -0.7027  -9.3538   H         1 RES1   0.0000
    60 C60      3.4797  -2.9962  -9.3185   C.ar      1 RES1   0.0000
    61 H61      3.7337  -3.9749  -9.7119   H         1 RES1   0.0000
    62 C62      4.3827  -2.3324  -8.5052   C.ar      1 RES1   0.0000
    63 H63      5.3355  -2.7932  -8.2669   H         1 RES1   0.0000
    64 C64      2.8639  -0.5072  -8.3038   C.ar      1 RES1   0.0000
    65 H65      2.6178   0.4718  -7.9062   H         1 RES1   0.0000
@<TRIPOS>BOND
     1     1     5   ar
     2     1     6   ar
     3     1     2    1
     4     3     8   ar
     5     3     9   ar
     6     3     4    1
     7     5     9   ar
     8     5    11    1
     9     6     8   ar
    10     6     7    1
    11     8    12    1
    12     9    10    1
    13    11    20    2
    14    11    23    1
    15    13    14    1
    16    13    23   am
    17    13    24    1
    18    14    31    1
    19    14    34    1
    20    14    15    1
    21    16    24    1
    22    16    17    1
    23    16    18    1
    24    16    19    1
    25    20    21    1
    26    20    24    1
    27    21    40   ar
    28    21    45   ar
    29    22    23    2
    30    25    34    1
    31    25    37    1
    32    25    26    1
    33    25    27    1
    34    28    31    1
    35    28    37    1
    36    28    29    1
    37    28    30    1
    38    31    32    1
    39    31    33    1
    40    34    35    1
    41    34    36    1
    42    37    38    1
    43    37    39    1
    44    40    47   ar
    45    41    45   ar
    46    41    48   ar
    47    41    42    1
    48    43    47    1
    49    43    49    1
    50    43    44    1
    51    45    46    1
    52    47    48   ar
    53    49    51    1
    54    49    52    1
    55    49    50    1
    56    51    58   ar
    57    51    60   ar
    58    52    53    1
    59    52    54    1
    60    52    55    1
    61    56    62   ar
    62    56    64   ar
    63    56    57    1
    64    58    64   ar
    65    58    59    1
    66    60    62   ar
    67    60    61    1
    68    62    63    1
    69    64    65    1
@<TRIPOS>SUBSTRUCTURE
     1 RES1        1 GROUP             0 ****  ****    0  
@<TRIPOS>MOLECULE
LIGAND_00279
    65    69     1     0     0
SMALL
USER_CHARGES
****
Generated from the CSD

@<TRIPOS>ATOM
     1 C1      -2.7631  -4.3551 -16.3843   C.ar      1 RES1   0.0000
     2 H2      -3.3869  -5.2039 -16.6428   H         1 RES1   0.0000
     3 C3      -1.2124  -2.1668 -15.7219   C.ar      1 RES1   0.0000
     4 H4      -0.6125  -1.3008 -15.4624   H         1 RES1   0.0000
     5 C5      -1.8085  -4.4880 -15.3803   C.ar      1 RES1   0.0000
     6 C6      -2.9380  -3.1589 -17.0575   C.ar      1 RES1   0.0000
     7 H7      -3.6782  -3.0677 -17.8453   H         1 RES1   0.0000
     8 C8      -2.1575  -2.0941 -16.7051   C.ar      1 RES1   0.0000
     9 C9      -1.0383  -3.3718 -15.0661   C.ar      1 RES1   0.0000
    10 H10     -0.2809  -3.4429 -14.2938   H         1 RES1   0.0000
    11 C11     -1.6101  -5.7761 -14.6397   C.2       1 RES1   0.0000
    12 F12     -2.3278  -0.9130 -17.3593   F         1 RES1   0.0000
    13 N13     -1.2406  -7.9410 -14.1570   N.am      1 RES1   0.0000
    14 C14     -1.5106  -9.4109 -14.3092   C.3       1 RES1   0.0000
    15 H15     -1.2171  -9.7059 -15.3156   H         1 RES1   0.0000
    16 C16     -0.8997  -7.6987 -11.7768   C.3       1 RES1   0.0000
    17 H17     -1.4821  -8.4149 -11.2007   H         1 RES1   0.0000
    18 H18      0.0445  -8.1681 -12.0450   H         1 RES1   0.0000
    19 H19     -0.6847  -6.8442 -11.1386   H         1 RES1   0.0000
    20 C20     -1.7513  -5.9390 -13.3057   C.2       1 RES1   0.0000
    21 C21     -2.0254  -4.9138 -12.2663   C.ar      1 RES1   0.0000
    22 O22     -1.1751  -7.3947 -16.3880   O.2       1 RES1   0.0000
    23 C23     -1.3018  -7.0544 -15.2191   C.2       1 RES1   0.0000
    24 N24     -1.6302  -7.2794 -12.9734   N.3       1 RES1   0.0000
    25 C25     -0.9159 -11.7077 -13.4737   C.3       1 RES1   0.0000
    26 H26     -0.3412 -12.2498 -12.7242   H         1 RES1   0.0000
    27 H27     -0.6031 -12.0220 -14.4684   H         1 RES1   0.0000
    28 C28     -3.2233 -11.2475 -14.2588   C.3       1 RES1   0.0000
    29 H29     -2.9785 -11.5605 -15.2727   H         1 RES1   0.0000
    30 H30     -4.2710 -11.4637 -14.0551   H         1 RES1   0.0000
    31 C31     -2.9879  -9.7502 -14.1280   C.3       1 RES1   0.0000
    32 H32     -3.5686  -9.2307 -14.8888   H         1 RES1   0.0000
    33 H33     -3.3097  -9.4241 -13.1401   H         1 RES1   0.0000
    34 C34     -0.6731 -10.2168 -13.3155   C.3       1 RES1   0.0000
    35 H35     -0.9401  -9.9191 -12.3026   H         1 RES1   0.0000
    36 H36      0.3816 -10.0084 -13.4889   H         1 RES1   0.0000
    37 N37     -2.3708 -12.0022 -13.2938   N.4       1 RES1   1.0000
    38 H38     -2.6415 -11.7467 -12.3495   H         1 RES1   0.0000
    39 H39     -2.5224 -12.9963 -13.4320   H         1 RES1   0.0000
    40 N40     -3.3153  -4.6658 -11.9899   N.ar      1 RES1   0.0000
    41 C41     -1.3914  -3.2906 -10.6788   C.ar      1 RES1   0.0000
    42 H42     -0.6140  -2.7468 -10.1523   H         1 RES1   0.0000
    43 N43     -4.8658  -3.4583 -10.8082   N.pl3     1 RES1   0.0000
    44 H44     -5.0755  -2.7626 -10.0925   H         1 RES1   0.0000
    45 C45     -1.0092  -4.2301 -11.6151   C.ar      1 RES1   0.0000
    46 H46      0.0362  -4.4223 -11.8328   H         1 RES1   0.0000
    47 C47     -3.5758  -3.7226 -11.0704   C.ar      1 RES1   0.0000
    48 N48     -2.6681  -3.0123 -10.3849   N.ar      1 RES1   0.0000
    49 C49     -5.9890  -4.1507 -11.4395   C.3       1 RES1   0.0000
    50 H50     -5.8933  -4.0544 -12.5321   H         1 RES1   0.0000
    51 C51     -7.3293  -3.5796 -11.0202   C.ar      1 RES1   0.0000
    52 C52     -5.8882  -5.6264 -11.0716   C.3       1 RES1   0.0000
    53 H53     -6.8678  -6.0991 -11.0990   H         1 RES1   0.0000
    54 H54     -5.2374  -6.1551 -11.7649   H         1 RES1   0.0000
    55 H55     -5.4830  -5.7456 -10.0689   H         1 RES1   0.0000
    56 C56     -9.7863  -2.5268 -10.2358   C.ar      1 RES1   0.0000
    57 H57    -10.7430  -2.1161  -9.9307   H         1 RES1   0.0000
    58 C58     -7.5066  -3.0652  -9.7439   C.ar      1 RES1   0.0000
    59 H59     -6.6784  -3.0736  -9.0430   H         1 RES1   0.0000
    60 C60     -8.4054  -3.5598 -11.8969   C.ar      1 RES1   0.0000
    61 H61     -8.2912  -3.9581 -12.8996   H         1 RES1   0.0000
    62 C62     -9.6260  -3.0359 -11.5057   C.ar      1 RES1   0.0000
    63 H63    -10.4580  -3.0265 -12.2019   H         1 RES1   0.0000
    64 C64     -8.7275  -2.5410  -9.3547   C.ar      1 RES1   0.0000
    65 H65     -8.8502  -2.1407  -8.3539   H         1 RES1   0.0000
@<TRIPOS>BOND
     1     1     5   ar
     2     1     6   ar
     3     1     2    1
     4     3     8   ar
     5     3     9   ar
     6     3     4    1
     7     5     9   ar
     8     5    11    1
     9     6     8   ar
    10     6     7    1
    11     8    12    1
    12     9    10    1
    13    11    20    2
    14    11    23    1
    15    13    14    1
    16    13    23   am
    17    13    24    1
    18    14    31    1
    19    14    34    1
    20    14    15    1
    21    16    24    1
    22    16    17    1
    23    16    18    1
    24    16    19    1
    25    20    21    1
    26    20    24    1
    27    21    40   ar
    28    21    45   ar
    29    22    23    2
    30    25    34    1
    31    25    37    1
    32    25    26    1
    33    25    27    1
    34    28    31    1
    35    28    37    1
    36    28    29    1
    37    28    30    1
    38    31    32    1
    39    31    33    1
    40    34    35    1
    41    34    36    1
    42    37    38    1
    43    37    39    1
    44    40    47   ar
    45    41    45   ar
    46    41    48   ar
    47    41    42    1
    48    43    47    1
    49    43    49    1
    50    43    44    1
    51    45    46    1
    52    47    48   ar
    53    49    51    1
    54    49    52    1
    55    49    50    1
    56    51    58   ar
    57    51    60   ar
    58    52    53    1
    59    52    54    1
    60    52    55    1
    61    56    62   ar
    62    56    64   ar
    63    56    57    1
    64    58    64   ar
    65    58    59    1
    66    60    62   ar
    67    60    61    1
    68    62    63    1
    69    64    65    1
@<TRIPOS>SUBSTRUCTURE
     1 RES1        1 GROUP             0 ****  ****    0  
@<TRIPOS>MOLECULE
LIGAND_00280
    65    69     1     0     0
SMALL
USER_CHARGES
****
Generated from the CSD

@<TRIPOS>ATOM
     1 C1      -3.0248  -3.8117 -15.3691   C.ar      1 RES1   0.0000
     2 H2      -3.8579  -4.2218 -14.8086   H         1 RES1   0.0000
     3 C3      -0.9094  -2.7260 -16.7756   C.ar      1 RES1   0.0000
     4 H4      -0.0813  -2.2894 -17.3241   H         1 RES1   0.0000
     5 C5      -1.8085  -4.4880 -15.3803   C.ar      1 RES1   0.0000
     6 C6      -3.1929  -2.6215 -16.0545   C.ar      1 RES1   0.0000
     7 H7      -4.1477  -2.1065 -16.0477   H         1 RES1   0.0000
     8 C8      -2.1271  -2.1087 -16.7387   C.ar      1 RES1   0.0000
     9 C9      -0.7584  -3.9218 -16.0977   C.ar      1 RES1   0.0000
    10 H10      0.2005  -4.4262 -16.1329   H         1 RES1   0.0000
    11 C11     -1.6101  -5.7761 -14.6397   C.2       1 RES1   0.0000
    12 F12     -2.2837  -0.9357 -17.4105   F         1 RES1   0.0000
    13 N13     -1.2406  -7.9410 -14.1570   N.am      1 RES1   0.0000
    14 C14     -1.5106  -9.4109 -14.3092   C.3       1 RES1   0.0000
    15 H15     -1.2171  -9.7059 -15.3156   H         1 RES1   0.0000
    16 C16     -0.8997  -7.6987 -11.7768   C.3       1 RES1   0.0000
    17 H17     -1.4821  -8.4149 -11.2007   H         1 RES1   0.0000
    18 H18      0.0445  -8.1681 -12.0450   H         1 RES1   0.0000
    19 H19     -0.6847  -6.8442 -11.1386   H         1 RES1   0.0000
    20 C20     -1.7513  -5.9390 -13.3057   C.2       1 RES1   0.0000
    21 C21     -2.0254  -4.9138 -12.2663   C.ar      1 RES1   0.0000
    22 O22     -1.1751  -7.3947 -16.3880   O.2       1 RES1   0.0000
    23 C23     -1.3018  -7.0544 -15.2191   C.2       1 RES1   0.0000
    24 N24     -1.6302  -7.2794 -12.9734   N.3       1 RES1   0.0000
    25 C25     -0.9159 -11.7077 -13.4737   C.3       1 RES1   0.0000
    26 H26     -0.3412 -12.2498 -12.7242   H         1 RES1   0.0000
    27 H27     -0.6031 -12.0220 -14.4684   H         1 RES1   0.0000
    28 C28     -3.2233 -11.2475 -14.2588   C.3       1 RES1   0.0000
    29 H29     -2.9785 -11.5605 -15.2727   H         1 RES1   0.0000
    30 H30     -4.2710 -11.4637 -14.0551   H         1 RES1   0.0000
    31 C31     -2.9879  -9.7502 -14.1280   C.3       1 RES1   0.0000
    32 H32     -3.5686  -9.2307 -14.8888   H         1 RES1   0.0000
    33 H33     -3.3097  -9.4241 -13.1401   H         1 RES1   0.0000
    34 C34     -0.6731 -10.2168 -13.3155   C.3       1 RES1   0.0000
    35 H35     -0.9401  -9.9191 -12.3026   H         1 RES1   0.0000
    36 H36      0.3816 -10.0084 -13.4889   H         1 RES1   0.0000
    37 N37     -2.3708 -12.0022 -13.2938   N.4       1 RES1   1.0000
    38 H38     -2.6415 -11.7467 -12.3495   H         1 RES1   0.0000
    39 H39     -2.5224 -12.9963 -13.4320   H         1 RES1   0.0000
    40 N40     -3.3153  -4.6658 -11.9899   N.ar      1 RES1   0.0000
    41 C41     -1.3914  -3.2906 -10.6788   C.ar      1 RES1   0.0000
    42 H42     -0.6140  -2.7468 -10.1523   H         1 RES1   0.0000
    43 N43     -4.8658  -3.4583 -10.8082   N.pl3     1 RES1   0.0000
    44 H44     -5.0755  -2.7626 -10.0925   H         1 RES1   0.0000
    45 C45     -1.0092  -4.2301 -11.6151   C.ar      1 RES1   0.0000
    46 H46      0.0362  -4.4223 -11.8328   H         1 RES1   0.0000
    47 C47     -3.5758  -3.7226 -11.0704   C.ar      1 RES1   0.0000
    48 N48     -2.6681  -3.0123 -10.3849   N.ar      1 RES1   0.0000
    49 C49     -5.9890  -4.1507 -11.4395   C.3       1 RES1   0.0000
    50 H50     -5.8933  -4.0544 -12.5321   H         1 RES1   0.0000
    51 C51     -7.3293  -3.5796 -11.0202   C.ar      1 RES1   0.0000
    52 C52     -5.8882  -5.6264 -11.0716   C.3       1 RES1   0.0000
    53 H53     -6.8678  -6.0991 -11.0990   H         1 RES1   0.0000
    54 H54     -5.2374  -6.1551 -11.7649   H         1 RES1   0.0000
    55 H55     -5.4830  -5.7456 -10.0689   H         1 RES1   0.0000
    56 C56     -9.7863  -2.5268 -10.2358   C.ar      1 RES1   0.0000
    57 H57    -10.7430  -2.1161  -9.9307   H         1 RES1   0.0000
    58 C58     -7.5066  -3.0652  -9.7439   C.ar      1 RES1   0.0000
    59 H59     -6.6784  -3.0736  -9.0430   H         1 RES1   0.0000
    60 C60     -8.4054  -3.5598 -11.8969   C.ar      1 RES1   0.0000
    61 H61     -8.2912  -3.9581 -12.8996   H         1 RES1   0.0000
    62 C62     -9.6260  -3.0359 -11.5057   C.ar      1 RES1   0.0000
    63 H63    -10.4580  -3.0265 -12.2019   H         1 RES1   0.0000
    64 C64     -8.7275  -2.5410  -9.3547   C.ar      1 RES1   0.0000
    65 H65     -8.8502  -2.1407  -8.3539   H         1 RES1   0.0000
@<TRIPOS>BOND
     1     1     5   ar
     2     1     6   ar
     3     1     2    1
     4     3     8   ar
     5     3     9   ar
     6     3     4    1
     7     5     9   ar
     8     5    11    1
     9     6     8   ar
    10     6     7    1
    11     8    12    1
    12     9    10    1
    13    11    20    2
    14    11    23    1
    15    13    14    1
    16    13    23   am
    17    13    24    1
    18    14    31    1
    19    14    34    1
    20    14    15    1
    21    16    24    1
    22    16    17    1
    23    16    18    1
    24    16    19    1
    25    20    21    1
    26    20    24    1
    27    21    40   ar
    28    21    45   ar
    29    22    23    2
    30    25    34    1
    31    25    37    1
    32    25    26    1
    33    25    27    1
    34    28    31    1
    35    28    37    1
    36    28    29    1
    37    28    30    1
    38    31    32    1
    39    31    33    1
    40    34    35    1
    41    34    36    1
    42    37    38    1
    43    37    39    1
    44    40    47   ar
    45    41    45   ar
    46    41    48   ar
    47    41    42    1
    48    43    47    1
    49    43    49    1
    50    43    44    1
    51    45    46    1
    52    47    48   ar
    53    49    51    1
    54    49    52    1
    55    49    50    1
    56    51    58   ar
    57    51    60   ar
    58    52    53    1
    59    52    54    1
    60    52    55    1
    61    56    62   ar
    62    56    64   ar
    63    56    57    1
    64    58    64   ar
    65    58    59    1
    66    60    62   ar
    67    60    61    1
    68    62    63    1
    69    64    65    1
@<TRIPOS>SUBSTRUCTURE
     1 RES1        1 GROUP             0 ****  ****    0  
@<TRIPOS>MOLECULE
LIGAND_00281
    65    69     1     0     0
SMALL
USER_CHARGES
****
Generated from the CSD

@<TRIPOS>ATOM
     1 C1      -2.7631  -4.3551 -16.3843   C.ar      1 RES1   0.0000
     2 H2      -3.3869  -5.2039 -16.6428   H         1 RES1   0.0000
     3 C3      -1.2124  -2.1668 -15.7219   C.ar      1 RES1   0.0000
     4 H4      -0.6125  -1.3008 -15.4624   H         1 RES1   0.0000
     5 C5      -1.8085  -4.4880 -15.3803   C.ar      1 RES1   0.0000
     6 C6      -2.9380  -3.1589 -17.0575   C.ar      1 RES1   0.0000
     7 H7      -3.6782  -3.0677 -17.8453   H         1 RES1   0.0000
     8 C8      -2.1575  -2.0941 -16.7051   C.ar      1 RES1   0.0000
     9 C9      -1.0383  -3.3718 -15.0661   C.ar      1 RES1   0.0000
    10 H10     -0.2809  -3.4429 -14.2938   H         1 RES1   0.0000
    11 C11     -1.6101  -5.7761 -14.6397   C.2       1 RES1   0.0000
    12 F12     -2.3278  -0.9130 -17.3593   F         1 RES1   0.0000
    13 N13     -1.2406  -7.9410 -14.1570   N.am      1 RES1   0.0000
    14 C14     -1.5106  -9.4109 -14.3092   C.3       1 RES1   0.0000
    15 H15     -1.2171  -9.7059 -15.3156   H         1 RES1   0.0000
    16 C16     -0.8997  -7.6987 -11.7768   C.3       1 RES1   0.0000
    17 H17     -1.4821  -8.4147 -11.2006   H         1 RES1   0.0000
    18 H18      0.0445  -8.1683 -12.0450   H         1 RES1   0.0000
    19 H19     -0.6846  -6.8442 -11.1387   H         1 RES1   0.0000
    20 C20     -1.7513  -5.9390 -13.3057   C.2       1 RES1   0.0000
    21 C21     -2.0254  -4.9138 -12.2663   C.ar      1 RES1   0.0000
    22 O22     -1.1751  -7.3947 -16.3880   O.2       1 RES1   0.0000
    23 C23     -1.3018  -7.0544 -15.2191   C.2       1 RES1   0.0000
    24 N24     -1.6302  -7.2794 -12.9734   N.3       1 RES1   0.0000
    25 C25     -0.9160 -11.7077 -13.4737   C.3       1 RES1   0.0000
    26 H26     -0.3413 -12.2498 -12.7242   H         1 RES1   0.0000
    27 H27     -0.6031 -12.0220 -14.4683   H         1 RES1   0.0000
    28 C28     -3.2233 -11.2475 -14.2588   C.3       1 RES1   0.0000
    29 H29     -2.9785 -11.5605 -15.2727   H         1 RES1   0.0000
    30 H30     -4.2710 -11.4637 -14.0552   H         1 RES1   0.0000
    31 C31     -2.9880  -9.7502 -14.1281   C.3       1 RES1   0.0000
    32 H32     -3.5686  -9.2307 -14.8889   H         1 RES1   0.0000
    33 H33     -3.3098  -9.4240 -13.1402   H         1 RES1   0.0000
    34 C34     -0.6731 -10.2168 -13.3154   C.3       1 RES1   0.0000
    35 H35     -0.9402  -9.9191 -12.3025   H         1 RES1   0.0000
    36 H36      0.3816 -10.0085 -13.4888   H         1 RES1   0.0000
    37 N37     -2.3708 -12.0022 -13.2938   N.4       1 RES1   1.0000
    38 H38     -2.6416 -11.7467 -12.3495   H         1 RES1   0.0000
    39 H39     -2.5225 -12.9962 -13.4320   H         1 RES1   0.0000
    40 N40     -3.3153  -4.6658 -11.9899   N.ar      1 RES1   0.0000
    41 C41     -1.3914  -3.2906 -10.6788   C.ar      1 RES1   0.0000
    42 H42     -0.6140  -2.7468 -10.1523   H         1 RES1   0.0000
    43 N43     -4.8658  -3.4583 -10.8082   N.pl3     1 RES1   0.0000
    44 H44     -5.5750  -3.9671 -11.3360   H         1 RES1   0.0000
    45 C45     -1.0092  -4.2301 -11.6151   C.ar      1 RES1   0.0000
    46 H46      0.0362  -4.4223 -11.8328   H         1 RES1   0.0000
    47 C47     -3.5758  -3.7226 -11.0704   C.ar      1 RES1   0.0000
    48 N48     -2.6681  -3.0123 -10.3849   N.ar      1 RES1   0.0000
    49 C49     -5.3176  -2.4419  -9.8583   C.3       1 RES1   0.0000
    50 H50     -4.8598  -2.6471  -8.8782   H         1 RES1   0.0000
    51 C51     -6.8248  -2.4330  -9.6948   C.ar      1 RES1   0.0000
    52 C52     -4.8169  -1.0904 -10.3545   C.3       1 RES1   0.0000
    53 H53     -5.4945  -0.2938 -10.0546   H         1 RES1   0.0000
    54 H54     -3.8324  -0.8687  -9.9479   H         1 RES1   0.0000
    55 H55     -4.7446  -1.0825 -11.4400   H         1 RES1   0.0000
    56 C56     -9.5958  -2.4209  -9.4091   C.ar      1 RES1   0.0000
    57 H57    -10.6750  -2.4169  -9.2974   H         1 RES1   0.0000
    58 C58     -7.6504  -2.7468 -10.7648   C.ar      1 RES1   0.0000
    59 H59     -7.2113  -2.9995 -11.7243   H         1 RES1   0.0000
    60 C60     -7.4114  -2.1103  -8.4788   C.ar      1 RES1   0.0000
    61 H61     -6.7862  -1.8597  -7.6282   H         1 RES1   0.0000
    62 C62     -8.7889  -2.1051  -8.3382   C.ar      1 RES1   0.0000
    63 H63     -9.2335  -1.8516  -7.3815   H         1 RES1   0.0000
    64 C64     -9.0275  -2.7418 -10.6221   C.ar      1 RES1   0.0000
    65 H65     -9.6599  -2.9912 -11.4676   H         1 RES1   0.0000
@<TRIPOS>BOND
     1     1     5   ar
     2     1     6   ar
     3     1     2    1
     4     3     8   ar
     5     3     9   ar
     6     3     4    1
     7     5     9   ar
     8     5    11    1
     9     6     8   ar
    10     6     7    1
    11     8    12    1
    12     9    10    1
    13    11    20    2
    14    11    23    1
    15    13    14    1
    16    13    23   am
    17    13    24    1
    18    14    31    1
    19    14    34    1
    20    14    15    1
    21    16    24    1
    22    16    17    1
    23    16    18    1
    24    16    19    1
    25    20    21    1
    26    20    24    1
    27    21    40   ar
    28    21    45   ar
    29    22    23    2
    30    25    34    1
    31    25    37    1
    32    25    26    1
    33    25    27    1
    34    28    31    1
    35    28    37    1
    36    28    29    1
    37    28    30    1
    38    31    32    1
    39    31    33    1
    40    34    35    1
    41    34    36    1
    42    37    38    1
    43    37    39    1
    44    40    47   ar
    45    41    45   ar
    46    41    48   ar
    47    41    42    1
    48    43    47    1
    49    43    49    1
    50    43    44    1
    51    45    46    1
    52    47    48   ar
    53    49    51    1
    54    49    52    1
    55    49    50    1
    56    51    58   ar
    57    51    60   ar
    58    52    53    1
    59    52    54    1
    60    52    55    1
    61    56    62   ar
    62    56    64   ar
    63    56    57    1
    64    58    64   ar
    65    58    59    1
    66    60    62   ar
    67    60    61    1
    68    62    63    1
    69    64    65    1
@<TRIPOS>SUBSTRUCTURE
     1 RES1        1 GROUP             0 ****  ****    0  
@<TRIPOS>MOLECULE
LIGAND_00282
    65    69     1     0     0
SMALL
USER_CHARGES
****
Generated from the CSD

@<TRIPOS>ATOM
     1 C1      -3.0248  -3.8117 -15.3691   C.ar      1 RES1   0.0000
     2 H2      -3.8579  -4.2218 -14.8086   H         1 RES1   0.0000
     3 C3      -0.9094  -2.7260 -16.7756   C.ar      1 RES1   0.0000
     4 H4      -0.0813  -2.2894 -17.3241   H         1 RES1   0.0000
     5 C5      -1.8085  -4.4880 -15.3803   C.ar      1 RES1   0.0000
     6 C6      -3.1929  -2.6215 -16.0545   C.ar      1 RES1   0.0000
     7 H7      -4.1477  -2.1065 -16.0477   H         1 RES1   0.0000
     8 C8      -2.1271  -2.1087 -16.7387   C.ar      1 RES1   0.0000
     9 C9      -0.7584  -3.9218 -16.0977   C.ar      1 RES1   0.0000
    10 H10      0.2005  -4.4262 -16.1329   H         1 RES1   0.0000
    11 C11     -1.6101  -5.7761 -14.6397   C.2       1 RES1   0.0000
    12 F12     -2.2837  -0.9357 -17.4105   F         1 RES1   0.0000
    13 N13     -1.2406  -7.9410 -14.1570   N.am      1 RES1   0.0000
    14 C14     -1.5106  -9.4109 -14.3092   C.3       1 RES1   0.0000
    15 H15     -1.2171  -9.7059 -15.3156   H         1 RES1   0.0000
    16 C16     -0.8997  -7.6987 -11.7768   C.3       1 RES1   0.0000
    17 H17     -1.4821  -8.4147 -11.2006   H         1 RES1   0.0000
    18 H18      0.0445  -8.1683 -12.0450   H         1 RES1   0.0000
    19 H19     -0.6846  -6.8442 -11.1387   H         1 RES1   0.0000
    20 C20     -1.7513  -5.9390 -13.3057   C.2       1 RES1   0.0000
    21 C21     -2.0254  -4.9138 -12.2663   C.ar      1 RES1   0.0000
    22 O22     -1.1751  -7.3947 -16.3880   O.2       1 RES1   0.0000
    23 C23     -1.3018  -7.0544 -15.2191   C.2       1 RES1   0.0000
    24 N24     -1.6302  -7.2794 -12.9734   N.3       1 RES1   0.0000
    25 C25     -0.9160 -11.7077 -13.4737   C.3       1 RES1   0.0000
    26 H26     -0.3413 -12.2498 -12.7242   H         1 RES1   0.0000
    27 H27     -0.6031 -12.0220 -14.4683   H         1 RES1   0.0000
    28 C28     -3.2233 -11.2475 -14.2588   C.3       1 RES1   0.0000
    29 H29     -2.9785 -11.5605 -15.2727   H         1 RES1   0.0000
    30 H30     -4.2710 -11.4637 -14.0552   H         1 RES1   0.0000
    31 C31     -2.9880  -9.7502 -14.1281   C.3       1 RES1   0.0000
    32 H32     -3.5686  -9.2307 -14.8889   H         1 RES1   0.0000
    33 H33     -3.3098  -9.4240 -13.1402   H         1 RES1   0.0000
    34 C34     -0.6731 -10.2168 -13.3154   C.3       1 RES1   0.0000
    35 H35     -0.9402  -9.9191 -12.3025   H         1 RES1   0.0000
    36 H36      0.3816 -10.0085 -13.4888   H         1 RES1   0.0000
    37 N37     -2.3708 -12.0022 -13.2938   N.4       1 RES1   1.0000
    38 H38     -2.6416 -11.7467 -12.3495   H         1 RES1   0.0000
    39 H39     -2.5225 -12.9962 -13.4320   H         1 RES1   0.0000
    40 N40     -3.3153  -4.6658 -11.9899   N.ar      1 RES1   0.0000
    41 C41     -1.3914  -3.2906 -10.6788   C.ar      1 RES1   0.0000
    42 H42     -0.6140  -2.7468 -10.1523   H         1 RES1   0.0000
    43 N43     -4.8658  -3.4583 -10.8082   N.pl3     1 RES1   0.0000
    44 H44     -5.5750  -3.9671 -11.3360   H         1 RES1   0.0000
    45 C45     -1.0092  -4.2301 -11.6151   C.ar      1 RES1   0.0000
    46 H46      0.0362  -4.4223 -11.8328   H         1 RES1   0.0000
    47 C47     -3.5758  -3.7226 -11.0704   C.ar      1 RES1   0.0000
    48 N48     -2.6681  -3.0123 -10.3849   N.ar      1 RES1   0.0000
    49 C49     -5.3176  -2.4419  -9.8583   C.3       1 RES1   0.0000
    50 H50     -4.8598  -2.6471  -8.8782   H         1 RES1   0.0000
    51 C51     -6.8248  -2.4330  -9.6948   C.ar      1 RES1   0.0000
    52 C52     -4.8169  -1.0904 -10.3545   C.3       1 RES1   0.0000
    53 H53     -5.4945  -0.2938 -10.0546   H         1 RES1   0.0000
    54 H54     -3.8324  -0.8687  -9.9479   H         1 RES1   0.0000
    55 H55     -4.7446  -1.0825 -11.4400   H         1 RES1   0.0000
    56 C56     -9.5958  -2.4209  -9.4091   C.ar      1 RES1   0.0000
    57 H57    -10.6750  -2.4169  -9.2974   H         1 RES1   0.0000
    58 C58     -7.6504  -2.7468 -10.7648   C.ar      1 RES1   0.0000
    59 H59     -7.2113  -2.9995 -11.7243   H         1 RES1   0.0000
    60 C60     -7.4114  -2.1103  -8.4788   C.ar      1 RES1   0.0000
    61 H61     -6.7862  -1.8597  -7.6282   H         1 RES1   0.0000
    62 C62     -8.7889  -2.1051  -8.3382   C.ar      1 RES1   0.0000
    63 H63     -9.2335  -1.8516  -7.3815   H         1 RES1   0.0000
    64 C64     -9.0275  -2.7418 -10.6221   C.ar      1 RES1   0.0000
    65 H65     -9.6599  -2.9912 -11.4676   H         1 RES1   0.0000
@<TRIPOS>BOND
     1     1     5   ar
     2     1     6   ar
     3     1     2    1
     4     3     8   ar
     5     3     9   ar
     6     3     4    1
     7     5     9   ar
     8     5    11    1
     9     6     8   ar
    10     6     7    1
    11     8    12    1
    12     9    10    1
    13    11    20    2
    14    11    23    1
    15    13    14    1
    16    13    23   am
    17    13    24    1
    18    14    31    1
    19    14    34    1
    20    14    15    1
    21    16    24    1
    22    16    17    1
    23    16    18    1
    24    16    19    1
    25    20    21    1
    26    20    24    1
    27    21    40   ar
    28    21    45   ar
    29    22    23    2
    30    25    34    1
    31    25    37    1
    32    25    26    1
    33    25    27    1
    34    28    31    1
    35    28    37    1
    36    28    29    1
    37    28    30    1
    38    31    32    1
    39    31    33    1
    40    34    35    1
    41    34    36    1
    42    37    38    1
    43    37    39    1
    44    40    47   ar
    45    41    45   ar
    46    41    48   ar
    47    41    42    1
    48    43    47    1
    49    43    49    1
    50    43    44    1
    51    45    46    1
    52    47    48   ar
    53    49    51    1
    54    49    52    1
    55    49    50    1
    56    51    58   ar
    57    51    60   ar
    58    52    53    1
    59    52    54    1
    60    52    55    1
    61    56    62   ar
    62    56    64   ar
    63    56    57    1
    64    58    64   ar
    65    58    59    1
    66    60    62   ar
    67    60    61    1
    68    62    63    1
    69    64    65    1
@<TRIPOS>SUBSTRUCTURE
     1 RES1        1 GROUP             0 ****  ****    0  
@<TRIPOS>MOLECULE
LIGAND_00283
    65    69     1     0     0
SMALL
USER_CHARGES
****
Generated from the CSD

@<TRIPOS>ATOM
     1 C1      -2.7631  -4.3551 -16.3843   C.ar      1 RES1   0.0000
     2 H2      -3.3869  -5.2039 -16.6428   H         1 RES1   0.0000
     3 C3      -1.2124  -2.1668 -15.7219   C.ar      1 RES1   0.0000
     4 H4      -0.6125  -1.3008 -15.4624   H         1 RES1   0.0000
     5 C5      -1.8085  -4.4880 -15.3803   C.ar      1 RES1   0.0000
     6 C6      -2.9380  -3.1589 -17.0575   C.ar      1 RES1   0.0000
     7 H7      -3.6782  -3.0677 -17.8453   H         1 RES1   0.0000
     8 C8      -2.1575  -2.0941 -16.7051   C.ar      1 RES1   0.0000
     9 C9      -1.0383  -3.3718 -15.0661   C.ar      1 RES1   0.0000
    10 H10     -0.2809  -3.4429 -14.2938   H         1 RES1   0.0000
    11 C11     -1.6101  -5.7761 -14.6397   C.2       1 RES1   0.0000
    12 F12     -2.3278  -0.9130 -17.3593   F         1 RES1   0.0000
    13 N13     -1.2406  -7.9410 -14.1570   N.am      1 RES1   0.0000
    14 C14     -1.5106  -9.4109 -14.3092   C.3       1 RES1   0.0000
    15 H15     -1.2171  -9.7059 -15.3156   H         1 RES1   0.0000
    16 C16     -0.8997  -7.6987 -11.7768   C.3       1 RES1   0.0000
    17 H17     -1.4821  -8.4147 -11.2006   H         1 RES1   0.0000
    18 H18      0.0445  -8.1683 -12.0450   H         1 RES1   0.0000
    19 H19     -0.6846  -6.8442 -11.1387   H         1 RES1   0.0000
    20 C20     -1.7513  -5.9390 -13.3057   C.2       1 RES1   0.0000
    21 C21     -2.0254  -4.9138 -12.2663   C.ar      1 RES1   0.0000
    22 O22     -1.1751  -7.3947 -16.3880   O.2       1 RES1   0.0000
    23 C23     -1.3018  -7.0544 -15.2191   C.2       1 RES1   0.0000
    24 N24     -1.6302  -7.2794 -12.9734   N.3       1 RES1   0.0000
    25 C25     -0.9160 -11.7077 -13.4737   C.3       1 RES1   0.0000
    26 H26     -0.3413 -12.2498 -12.7242   H         1 RES1   0.0000
    27 H27     -0.6031 -12.0220 -14.4683   H         1 RES1   0.0000
    28 C28     -3.2233 -11.2475 -14.2588   C.3       1 RES1   0.0000
    29 H29     -2.9785 -11.5605 -15.2727   H         1 RES1   0.0000
    30 H30     -4.2710 -11.4637 -14.0552   H         1 RES1   0.0000
    31 C31     -2.9880  -9.7502 -14.1281   C.3       1 RES1   0.0000
    32 H32     -3.5686  -9.2307 -14.8889   H         1 RES1   0.0000
    33 H33     -3.3098  -9.4240 -13.1402   H         1 RES1   0.0000
    34 C34     -0.6731 -10.2168 -13.3154   C.3       1 RES1   0.0000
    35 H35     -0.9402  -9.9191 -12.3025   H         1 RES1   0.0000
    36 H36      0.3816 -10.0085 -13.4888   H         1 RES1   0.0000
    37 N37     -2.3708 -12.0022 -13.2938   N.4       1 RES1   1.0000
    38 H38     -2.6416 -11.7467 -12.3495   H         1 RES1   0.0000
    39 H39     -2.5225 -12.9962 -13.4320   H         1 RES1   0.0000
    40 N40     -0.9580  -4.3300 -11.6994   N.ar      1 RES1   0.0000
    41 C41     -3.4397  -3.6190 -10.8951   C.ar      1 RES1   0.0000
    42 H42     -4.4387  -3.3344 -10.5815   H         1 RES1   0.0000
    43 N43     -0.1258  -2.8511 -10.1571   N.pl3     1 RES1   0.0000
    44 H44      0.8009  -3.1561 -10.4544   H         1 RES1   0.0000
    45 C45     -3.3148  -4.5762 -11.8818   C.ar      1 RES1   0.0000
    46 H46     -4.1838  -5.0436 -12.3329   H         1 RES1   0.0000
    47 C47     -1.1929  -3.4204 -10.7400   C.ar      1 RES1   0.0000
    48 N48     -2.3968  -3.0232 -10.3026   N.ar      1 RES1   0.0000
    49 C49     -0.2090  -1.8668  -9.0783   C.3       1 RES1   0.0000
    50 H50     -0.8365  -1.0270  -9.4150   H         1 RES1   0.0000
    51 C51      1.1510  -1.3253  -8.6839   C.ar      1 RES1   0.0000
    52 C52     -0.8917  -2.5376  -7.8920   C.3       1 RES1   0.0000
    53 H53     -0.5406  -2.1132  -6.9538   H         1 RES1   0.0000
    54 H54     -1.9706  -2.4062  -7.9406   H         1 RES1   0.0000
    55 H55     -0.6807  -3.6049  -7.8806   H         1 RES1   0.0000
    56 C56      3.6565  -0.3442  -7.9624   C.ar      1 RES1   0.0000
    57 H57      4.6323   0.0383  -7.6821   H         1 RES1   0.0000
    58 C58      2.2767  -2.1336  -8.7516   C.ar      1 RES1   0.0000
    59 H59      2.1796  -3.1602  -9.0892   H         1 RES1   0.0000
    60 C60      1.3015  -0.0168  -8.2458   C.ar      1 RES1   0.0000
    61 H61      0.4354   0.6336  -8.1828   H         1 RES1   0.0000
    62 C62      2.5475   0.4697  -7.8879   C.ar      1 RES1   0.0000
    63 H63      2.6502   1.4948  -7.5480   H         1 RES1   0.0000
    64 C64      3.5219  -1.6453  -8.3941   C.ar      1 RES1   0.0000
    65 H65      4.3931  -2.2890  -8.4541   H         1 RES1   0.0000
@<TRIPOS>BOND
     1     1     5   ar
     2     1     6   ar
     3     1     2    1
     4     3     8   ar
     5     3     9   ar
     6     3     4    1
     7     5     9   ar
     8     5    11    1
     9     6     8   ar
    10     6     7    1
    11     8    12    1
    12     9    10    1
    13    11    20    2
    14    11    23    1
    15    13    14    1
    16    13    23   am
    17    13    24    1
    18    14    31    1
    19    14    34    1
    20    14    15    1
    21    16    24    1
    22    16    17    1
    23    16    18    1
    24    16    19    1
    25    20    21    1
    26    20    24    1
    27    21    40   ar
    28    21    45   ar
    29    22    23    2
    30    25    34    1
    31    25    37    1
    32    25    26    1
    33    25    27    1
    34    28    31    1
    35    28    37    1
    36    28    29    1
    37    28    30    1
    38    31    32    1
    39    31    33    1
    40    34    35    1
    41    34    36    1
    42    37    38    1
    43    37    39    1
    44    40    47   ar
    45    41    45   ar
    46    41    48   ar
    47    41    42    1
    48    43    47    1
    49    43    49    1
    50    43    44    1
    51    45    46    1
    52    47    48   ar
    53    49    51    1
    54    49    52    1
    55    49    50    1
    56    51    58   ar
    57    51    60   ar
    58    52    53    1
    59    52    54    1
    60    52    55    1
    61    56    62   ar
    62    56    64   ar
    63    56    57    1
    64    58    64   ar
    65    58    59    1
    66    60    62   ar
    67    60    61    1
    68    62    63    1
    69    64    65    1
@<TRIPOS>SUBSTRUCTURE
     1 RES1        1 GROUP             0 ****  ****    0  
@<TRIPOS>MOLECULE
LIGAND_00284
    65    69     1     0     0
SMALL
USER_CHARGES
****
Generated from the CSD

@<TRIPOS>ATOM
     1 C1      -0.7356  -3.3904 -14.9863   C.ar      1 RES1   0.0000
     2 H2      -1.7945  -3.4286 -14.7543   H         1 RES1   0.0000
     3 C3       1.9656  -3.2559 -15.5496   C.ar      1 RES1   0.0000
     4 H4       3.0270  -3.1931 -15.7656   H         1 RES1   0.0000
     5 C5       0.0365  -4.5403 -14.8505   C.ar      1 RES1   0.0000
     6 C6      -0.1792  -2.1952 -15.4063   C.ar      1 RES1   0.0000
     7 H7      -0.7911  -1.3064 -15.5184   H         1 RES1   0.0000
     8 C8       1.1602  -2.1600 -15.6747   C.ar      1 RES1   0.0000
     9 C9       1.3945  -4.4475 -15.1421   C.ar      1 RES1   0.0000
    10 H10      2.0234  -5.3261 -15.0534   H         1 RES1   0.0000
    11 C11     -0.5512  -5.8412 -14.3929   C.2       1 RES1   0.0000
    12 F12      1.7152  -0.9865 -16.0830   F         1 RES1   0.0000
    13 N13     -1.2336  -7.9435 -14.1528   N.am      1 RES1   0.0000
    14 C14     -1.4938  -9.4156 -14.3002   C.3       1 RES1   0.0000
    15 H15     -1.0669  -9.7409 -15.2477   H         1 RES1   0.0000
    16 C16     -2.0637  -7.8428 -11.7698   C.3       1 RES1   0.0000
    17 H17     -2.6122  -7.1248 -11.1636   H         1 RES1   0.0000
    18 H18     -2.7260  -8.6783 -11.9871   H         1 RES1   0.0000
    19 H19     -1.2284  -8.2162 -11.1812   H         1 RES1   0.0000
    20 C20     -1.1594  -5.9688 -13.1688   C.2       1 RES1   0.0000
    21 C21     -1.4160  -4.9157 -12.1531   C.ar      1 RES1   0.0000
    22 O22     -0.1919  -7.5077 -16.1066   O.2       1 RES1   0.0000
    23 C23     -0.6064  -7.1200 -15.0220   C.2       1 RES1   0.0000
    24 N24     -1.5880  -7.2213 -13.0062   N.pl3     1 RES1   0.0000
    25 C25     -1.0421 -11.6907 -13.3273   C.3       1 RES1   0.0000
    26 H26     -0.5816 -12.2143 -12.4908   H         1 RES1   0.0000
    27 H27     -0.5978 -12.0352 -14.2600   H         1 RES1   0.0000
    28 C28     -3.2144 -11.2404 -14.4365   C.3       1 RES1   0.0000
    29 H29     -2.8348 -11.5837 -15.3978   H         1 RES1   0.0000
    30 H30     -4.2822 -11.4449 -14.3739   H         1 RES1   0.0000
    31 C31     -2.9852  -9.7413 -14.3159   C.3       1 RES1   0.0000
    32 H32     -3.4502  -9.2406 -15.1638   H         1 RES1   0.0000
    33 H33     -3.4373  -9.3852 -13.3914   H         1 RES1   0.0000
    34 C34     -0.8094 -10.1973 -13.1782   C.3       1 RES1   0.0000
    35 H35     -1.2110  -9.8692 -12.2206   H         1 RES1   0.0000
    36 H36      0.2611  -9.9998 -13.2097   H         1 RES1   0.0000
    37 N37     -2.5106 -11.9719 -13.3424   N.4       1 RES1   1.0000
    38 H38     -2.9067 -11.6879 -12.4521   H         1 RES1   0.0000
    39 H39     -2.6511 -12.9686 -13.4727   H         1 RES1   0.0000
    40 N40     -2.6992  -4.6898 -11.8302   N.ar      1 RES1   0.0000
    41 C41     -0.7580  -3.2243 -10.6488   C.ar      1 RES1   0.0000
    42 H42      0.0265  -2.6440 -10.1743   H         1 RES1   0.0000
    43 N43     -4.2293  -3.4806 -10.6241   N.pl3     1 RES1   0.0000
    44 H44     -4.4249  -2.8039  -9.8864   H         1 RES1   0.0000
    45 C45     -0.3913  -4.1856 -11.5689   C.ar      1 RES1   0.0000
    46 H46      0.6486  -4.3597 -11.8246   H         1 RES1   0.0000
    47 C47     -2.9451  -3.7222 -10.9322   C.ar      1 RES1   0.0000
    48 N48     -2.0280  -2.9671 -10.3100   N.ar      1 RES1   0.0000
    49 C49     -5.3633  -4.1729 -11.2359   C.3       1 RES1   0.0000
    50 H50     -6.2938  -3.7834 -10.7947   H         1 RES1   0.0000
    51 C51     -5.3140  -5.6717 -11.0132   C.ar      1 RES1   0.0000
    52 C52     -5.3571  -3.8443 -12.7243   C.3       1 RES1   0.0000
    53 H53     -6.2883  -4.1564 -13.1926   H         1 RES1   0.0000
    54 H54     -5.2392  -2.7747 -12.8846   H         1 RES1   0.0000
    55 H55     -4.5380  -4.3544 -13.2269   H         1 RES1   0.0000
    56 C56     -5.2232  -8.4279 -10.6192   C.ar      1 RES1   0.0000
    57 H57     -5.1871  -9.5014 -10.4656   H         1 RES1   0.0000
    58 C58     -5.2896  -6.5429 -12.0927   C.ar      1 RES1   0.0000
    59 H59     -5.3067  -6.1458 -13.1023   H         1 RES1   0.0000
    60 C60     -5.2945  -6.2052  -9.7318   C.ar      1 RES1   0.0000
    61 H61     -5.3147  -5.5437  -8.8721   H         1 RES1   0.0000
    62 C62     -5.2490  -7.5754  -9.5375   C.ar      1 RES1   0.0000
    63 H63     -5.2336  -7.9781  -8.5303   H         1 RES1   0.0000
    64 C64     -5.2434  -7.9127 -11.8966   C.ar      1 RES1   0.0000
    65 H65     -5.2230  -8.5812 -12.7508   H         1 RES1   0.0000
@<TRIPOS>BOND
     1     1     5   ar
     2     1     6   ar
     3     1     2    1
     4     3     8   ar
     5     3     9   ar
     6     3     4    1
     7     5     9   ar
     8     5    11    1
     9     6     8   ar
    10     6     7    1
    11     8    12    1
    12     9    10    1
    13    11    20    2
    14    11    23    1
    15    13    14    1
    16    13    23   am
    17    13    24    1
    18    14    31    1
    19    14    34    1
    20    14    15    1
    21    16    24    1
    22    16    17    1
    23    16    18    1
    24    16    19    1
    25    20    21    1
    26    20    24    1
    27    21    40   ar
    28    21    45   ar
    29    22    23    2
    30    25    34    1
    31    25    37    1
    32    25    26    1
    33    25    27    1
    34    28    31    1
    35    28    37    1
    36    28    29    1
    37    28    30    1
    38    31    32    1
    39    31    33    1
    40    34    35    1
    41    34    36    1
    42    37    38    1
    43    37    39    1
    44    40    47   ar
    45    41    45   ar
    46    41    48   ar
    47    41    42    1
    48    43    47    1
    49    43    49    1
    50    43    44    1
    51    45    46    1
    52    47    48   ar
    53    49    51    1
    54    49    52    1
    55    49    50    1
    56    51    58   ar
    57    51    60   ar
    58    52    53    1
    59    52    54    1
    60    52    55    1
    61    56    62   ar
    62    56    64   ar
    63    56    57    1
    64    58    64   ar
    65    58    59    1
    66    60    62   ar
    67    60    61    1
    68    62    63    1
    69    64    65    1
@<TRIPOS>SUBSTRUCTURE
     1 RES1        1 GROUP             0 ****  ****    0  
@<TRIPOS>MOLECULE
LIGAND_00285
    65    69     1     0     0
SMALL
USER_CHARGES
****
Generated from the CSD

@<TRIPOS>ATOM
     1 C1      -0.7658  -3.8366 -15.9789   C.ar      1 RES1   0.0000
     2 H2      -1.6380  -4.2801 -16.4469   H         1 RES1   0.0000
     3 C3       1.4322  -2.6672 -14.7818   C.ar      1 RES1   0.0000
     4 H4       2.2903  -2.1979 -14.3120   H         1 RES1   0.0000
     5 C5      -0.1372  -4.5041 -14.9319   C.ar      1 RES1   0.0000
     6 C6      -0.3044  -2.6138 -16.4332   C.ar      1 RES1   0.0000
     7 H7      -0.7953  -2.1056 -17.2564   H         1 RES1   0.0000
     8 C8       0.7833  -2.0600 -15.8189   C.ar      1 RES1   0.0000
     9 C9       0.9694  -3.8954 -14.3464   C.ar      1 RES1   0.0000
    10 H10      1.4866  -4.3915 -13.5331   H         1 RES1   0.0000
    11 C11     -0.6276  -5.8274 -14.4265   C.2       1 RES1   0.0000
    12 F12      1.2392  -0.8549 -16.2568   F         1 RES1   0.0000
    13 N13     -1.1811  -7.9592 -14.1232   N.am      1 RES1   0.0000
    14 C14     -1.3691  -9.4451 -14.2380   C.3       1 RES1   0.0000
    15 H15     -0.9782  -9.7615 -15.2039   H         1 RES1   0.0000
    16 C16     -1.8824  -7.8671 -11.6989   C.3       1 RES1   0.0000
    17 H17     -2.4347  -7.1703 -11.0717   H         1 RES1   0.0000
    18 H18     -2.5096  -8.7398 -11.8687   H         1 RES1   0.0000
    19 H19     -0.9969  -8.1864 -11.1535   H         1 RES1   0.0000
    20 C20     -1.1594  -5.9688 -13.1688   C.2       1 RES1   0.0000
    21 C21     -1.4160  -4.9157 -12.1531   C.ar      1 RES1   0.0000
    22 O22     -0.2740  -7.4980 -16.1374   O.2       1 RES1   0.0000
    23 C23     -0.6483  -7.1166 -15.0361   C.2       1 RES1   0.0000
    24 N24     -1.5100  -7.2398 -12.9674   N.pl3     1 RES1   0.0000
    25 C25     -0.7421 -11.6781 -13.2645   C.3       1 RES1   0.0000
    26 H26     -0.2086 -12.1637 -12.4488   H         1 RES1   0.0000
    27 H27     -0.3320 -12.0124 -14.2164   H         1 RES1   0.0000
    28 C28     -2.9935 -11.3608 -14.2559   C.3       1 RES1   0.0000
    29 H29     -2.6495 -11.6979 -15.2326   H         1 RES1   0.0000
    30 H30     -4.0436 -11.6210 -14.1312   H         1 RES1   0.0000
    31 C31     -2.8393  -9.8501 -14.1664   C.3       1 RES1   0.0000
    32 H32     -3.3768  -9.3876 -14.9929   H         1 RES1   0.0000
    33 H33     -3.2583  -9.5047 -13.2224   H         1 RES1   0.0000
    34 C34     -0.5825 -10.1723 -13.1467   C.3       1 RES1   0.0000
    35 H35     -0.9478  -9.8517 -12.1722   H         1 RES1   0.0000
    36 H36      0.4724  -9.9186 -13.2404   H         1 RES1   0.0000
    37 N37     -2.1918 -12.0372 -13.1940   N.4       1 RES1   1.0000
    38 H38     -2.5530 -11.7614 -12.2865   H         1 RES1   0.0000
    39 H39     -2.2852 -13.0419 -13.3043   H         1 RES1   0.0000
    40 N40     -2.6992  -4.6898 -11.8302   N.ar      1 RES1   0.0000
    41 C41     -0.7580  -3.2243 -10.6488   C.ar      1 RES1   0.0000
    42 H42      0.0265  -2.6440 -10.1743   H         1 RES1   0.0000
    43 N43     -4.2293  -3.4806 -10.6241   N.pl3     1 RES1   0.0000
    44 H44     -4.4251  -2.8009  -9.8892   H         1 RES1   0.0000
    45 C45     -0.3913  -4.1856 -11.5689   C.ar      1 RES1   0.0000
    46 H46      0.6486  -4.3597 -11.8246   H         1 RES1   0.0000
    47 C47     -2.9451  -3.7222 -10.9322   C.ar      1 RES1   0.0000
    48 N48     -2.0280  -2.9671 -10.3100   N.ar      1 RES1   0.0000
    49 C49     -5.3631  -4.1767 -11.2320   C.3       1 RES1   0.0000
    50 H50     -6.2934  -3.7896 -10.7883   H         1 RES1   0.0000
    51 C51     -5.3087  -5.6752 -11.0080   C.ar      1 RES1   0.0000
    52 C52     -5.3623  -3.8495 -12.7206   C.3       1 RES1   0.0000
    53 H53     -6.2917  -4.1696 -13.1869   H         1 RES1   0.0000
    54 H54     -5.2534  -2.7791 -12.8821   H         1 RES1   0.0000
    55 H55     -4.5399  -4.3533 -13.2243   H         1 RES1   0.0000
    56 C56     -5.2086  -8.4308 -10.6119   C.ar      1 RES1   0.0000
    57 H57     -5.1689  -9.5040 -10.4574   H         1 RES1   0.0000
    58 C58     -5.2774  -6.5471 -12.0868   C.ar      1 RES1   0.0000
    59 H59     -5.2927  -6.1507 -13.0967   H         1 RES1   0.0000
    60 C60     -5.2914  -6.2077  -9.7262   C.ar      1 RES1   0.0000
    61 H61     -5.3170  -5.5457  -8.8670   H         1 RES1   0.0000
    62 C62     -5.2413  -7.5776  -9.5308   C.ar      1 RES1   0.0000
    63 H63     -5.2277  -7.9796  -8.5232   H         1 RES1   0.0000
    64 C64     -5.2266  -7.9165 -11.8896   C.ar      1 RES1   0.0000
    65 H65     -5.2008  -8.5855 -12.7433   H         1 RES1   0.0000
@<TRIPOS>BOND
     1     1     5   ar
     2     1     6   ar
     3     1     2    1
     4     3     8   ar
     5     3     9   ar
     6     3     4    1
     7     5     9   ar
     8     5    11    1
     9     6     8   ar
    10     6     7    1
    11     8    12    1
    12     9    10    1
    13    11    20    2
    14    11    23    1
    15    13    14    1
    16    13    23   am
    17    13    24    1
    18    14    31    1
    19    14    34    1
    20    14    15    1
    21    16    24    1
    22    16    17    1
    23    16    18    1
    24    16    19    1
    25    20    21    1
    26    20    24    1
    27    21    40   ar
    28    21    45   ar
    29    22    23    2
    30    25    34    1
    31    25    37    1
    32    25    26    1
    33    25    27    1
    34    28    31    1
    35    28    37    1
    36    28    29    1
    37    28    30    1
    38    31    32    1
    39    31    33    1
    40    34    35    1
    41    34    36    1
    42    37    38    1
    43    37    39    1
    44    40    47   ar
    45    41    45   ar
    46    41    48   ar
    47    41    42    1
    48    43    47    1
    49    43    49    1
    50    43    44    1
    51    45    46    1
    52    47    48   ar
    53    49    51    1
    54    49    52    1
    55    49    50    1
    56    51    58   ar
    57    51    60   ar
    58    52    53    1
    59    52    54    1
    60    52    55    1
    61    56    62   ar
    62    56    64   ar
    63    56    57    1
    64    58    64   ar
    65    58    59    1
    66    60    62   ar
    67    60    61    1
    68    62    63    1
    69    64    65    1
@<TRIPOS>SUBSTRUCTURE
     1 RES1        1 GROUP             0 ****  ****    0  
@<TRIPOS>MOLECULE
LIGAND_00286
    65    69     1     0     0
SMALL
USER_CHARGES
****
Generated from the CSD

@<TRIPOS>ATOM
     1 C1      -0.7655  -3.8365 -15.9787   C.ar      1 RES1   0.0000
     2 H2      -1.6378  -4.2799 -16.4467   H         1 RES1   0.0000
     3 C3       1.4327  -2.6675 -14.7817   C.ar      1 RES1   0.0000
     4 H4       2.2909  -2.1983 -14.3118   H         1 RES1   0.0000
     5 C5      -0.1369  -4.5041 -14.9318   C.ar      1 RES1   0.0000
     6 C6      -0.3040  -2.6137 -16.4329   C.ar      1 RES1   0.0000
     7 H7      -0.7949  -2.1054 -17.2561   H         1 RES1   0.0000
     8 C8       0.7838  -2.0601 -15.8186   C.ar      1 RES1   0.0000
     9 C9       0.9697  -3.8956 -14.3463   C.ar      1 RES1   0.0000
    10 H10      1.4870  -4.3918 -13.5331   H         1 RES1   0.0000
    11 C11     -0.6275  -5.8274 -14.4265   C.2       1 RES1   0.0000
    12 F12      1.2399  -0.8550 -16.2565   F         1 RES1   0.0000
    13 N13     -1.1811  -7.9592 -14.1232   N.am      1 RES1   0.0000
    14 C14     -1.3693  -9.4451 -14.2381   C.3       1 RES1   0.0000
    15 H15     -0.9784  -9.7614 -15.2040   H         1 RES1   0.0000
    16 C16     -1.8827  -7.8670 -11.6990   C.3       1 RES1   0.0000
    17 H17     -2.4350  -7.1703 -11.0718   H         1 RES1   0.0000
    18 H18     -2.5098  -8.7398 -11.8688   H         1 RES1   0.0000
    19 H19     -0.9972  -8.1864 -11.1534   H         1 RES1   0.0000
    20 C20     -1.1594  -5.9688 -13.1688   C.2       1 RES1   0.0000
    21 C21     -1.4160  -4.9157 -12.1531   C.ar      1 RES1   0.0000
    22 O22     -0.2739  -7.4980 -16.1374   O.2       1 RES1   0.0000
    23 C23     -0.6482  -7.1166 -15.0361   C.2       1 RES1   0.0000
    24 N24     -1.5101  -7.2398 -12.9674   N.pl3     1 RES1   0.0000
    25 C25     -0.7425 -11.6781 -13.2647   C.3       1 RES1   0.0000
    26 H26     -0.2090 -12.1638 -12.4489   H         1 RES1   0.0000
    27 H27     -0.3324 -12.0124 -14.2165   H         1 RES1   0.0000
    28 C28     -2.9938 -11.3607 -14.2561   C.3       1 RES1   0.0000
    29 H29     -2.6499 -11.6978 -15.2328   H         1 RES1   0.0000
    30 H30     -4.0439 -11.6207 -14.1314   H         1 RES1   0.0000
    31 C31     -2.8395  -9.8499 -14.1665   C.3       1 RES1   0.0000
    32 H32     -3.3769  -9.3874 -14.9930   H         1 RES1   0.0000
    33 H33     -3.2585  -9.5045 -13.2225   H         1 RES1   0.0000
    34 C34     -0.5828 -10.1723 -13.1468   C.3       1 RES1   0.0000
    35 H35     -0.9481  -9.8517 -12.1723   H         1 RES1   0.0000
    36 H36      0.4721  -9.9187 -13.2405   H         1 RES1   0.0000
    37 N37     -2.1922 -12.0372 -13.1942   N.4       1 RES1   1.0000
    38 H38     -2.5534 -11.7613 -12.2866   H         1 RES1   0.0000
    39 H39     -2.2857 -13.0418 -13.3045   H         1 RES1   0.0000
    40 N40     -2.6992  -4.6898 -11.8302   N.ar      1 RES1   0.0000
    41 C41     -0.7580  -3.2243 -10.6488   C.ar      1 RES1   0.0000
    42 H42      0.0265  -2.6440 -10.1743   H         1 RES1   0.0000
    43 N43     -4.2293  -3.4806 -10.6241   N.pl3     1 RES1   0.0000
    44 H44     -4.4276  -2.7522  -9.9382   H         1 RES1   0.0000
    45 C45     -0.3913  -4.1856 -11.5689   C.ar      1 RES1   0.0000
    46 H46      0.6486  -4.3597 -11.8246   H         1 RES1   0.0000
    47 C47     -2.9451  -3.7222 -10.9322   C.ar      1 RES1   0.0000
    48 N48     -2.0280  -2.9671 -10.3100   N.ar      1 RES1   0.0000
    49 C49     -5.3582  -4.2388 -11.1629   C.3       1 RES1   0.0000
    50 H50     -5.2820  -4.2517 -12.2612   H         1 RES1   0.0000
    51 C51     -6.6952  -3.6361 -10.7788   C.ar      1 RES1   0.0000
    52 C52     -5.2402  -5.6698 -10.6513   C.3       1 RES1   0.0000
    53 H53     -6.1065  -6.2581 -10.9467   H         1 RES1   0.0000
    54 H54     -4.3508  -6.1522 -11.0511   H         1 RES1   0.0000
    55 H55     -5.1749  -5.6854  -9.5654   H         1 RES1   0.0000
    56 C56     -9.1557  -2.5417 -10.0655   C.ar      1 RES1   0.0000
    57 H57    -10.1136  -2.1150  -9.7872   H         1 RES1   0.0000
    58 C58     -7.6072  -4.3664 -10.0305   C.ar      1 RES1   0.0000
    59 H59     -7.3591  -5.3760  -9.7199   H         1 RES1   0.0000
    60 C60     -7.0380  -2.3480 -11.1661   C.ar      1 RES1   0.0000
    61 H61     -6.3418  -1.7583 -11.7533   H         1 RES1   0.0000
    62 C62     -8.2613  -1.8051 -10.8106   C.ar      1 RES1   0.0000
    63 H63     -8.5154  -0.7968 -11.1199   H         1 RES1   0.0000
    64 C64     -8.8295  -3.8218  -9.6752   C.ar      1 RES1   0.0000
    65 H65     -9.5315  -4.4047  -9.0883   H         1 RES1   0.0000
@<TRIPOS>BOND
     1     1     5   ar
     2     1     6   ar
     3     1     2    1
     4     3     8   ar
     5     3     9   ar
     6     3     4    1
     7     5     9   ar
     8     5    11    1
     9     6     8   ar
    10     6     7    1
    11     8    12    1
    12     9    10    1
    13    11    20    2
    14    11    23    1
    15    13    14    1
    16    13    23   am
    17    13    24    1
    18    14    31    1
    19    14    34    1
    20    14    15    1
    21    16    24    1
    22    16    17    1
    23    16    18    1
    24    16    19    1
    25    20    21    1
    26    20    24    1
    27    21    40   ar
    28    21    45   ar
    29    22    23    2
    30    25    34    1
    31    25    37    1
    32    25    26    1
    33    25    27    1
    34    28    31    1
    35    28    37    1
    36    28    29    1
    37    28    30    1
    38    31    32    1
    39    31    33    1
    40    34    35    1
    41    34    36    1
    42    37    38    1
    43    37    39    1
    44    40    47   ar
    45    41    45   ar
    46    41    48   ar
    47    41    42    1
    48    43    47    1
    49    43    49    1
    50    43    44    1
    51    45    46    1
    52    47    48   ar
    53    49    51    1
    54    49    52    1
    55    49    50    1
    56    51    58   ar
    57    51    60   ar
    58    52    53    1
    59    52    54    1
    60    52    55    1
    61    56    62   ar
    62    56    64   ar
    63    56    57    1
    64    58    64   ar
    65    58    59    1
    66    60    62   ar
    67    60    61    1
    68    62    63    1
    69    64    65    1
@<TRIPOS>SUBSTRUCTURE
     1 RES1        1 GROUP             0 ****  ****    0  
@<TRIPOS>MOLECULE
LIGAND_00287
    65    69     1     0     0
SMALL
USER_CHARGES
****
Generated from the CSD

@<TRIPOS>ATOM
     1 C1      -3.2092  -4.1555 -15.8039   C.ar      1 RES1   0.0000
     2 H2      -4.0430  -4.8135 -15.5839   H         1 RES1   0.0000
     3 C3      -1.1097  -2.4440 -16.3464   C.ar      1 RES1   0.0000
     4 H4      -0.2916  -1.7631 -16.5566   H         1 RES1   0.0000
     5 C5      -1.9291  -4.5110 -15.3895   C.ar      1 RES1   0.0000
     6 C6      -3.4428  -2.9753 -16.4872   C.ar      1 RES1   0.0000
     7 H7      -4.4428  -2.7113 -16.8148   H         1 RES1   0.0000
     8 C8      -2.3842  -2.1485 -16.7382   C.ar      1 RES1   0.0000
     9 C9      -0.8876  -3.6331 -15.6763   C.ar      1 RES1   0.0000
    10 H10      0.1230  -3.8827 -15.3737   H         1 RES1   0.0000
    11 C11     -1.6612  -5.7843 -14.6451   C.2       1 RES1   0.0000
    12 F12     -2.6074  -0.9834 -17.4050   F         1 RES1   0.0000
    13 N13     -1.2006  -7.9305 -14.1569   N.am      1 RES1   0.0000
    14 C14     -1.4244  -9.4101 -14.2872   C.3       1 RES1   0.0000
    15 H15     -1.1552  -9.7046 -15.3005   H         1 RES1   0.0000
    16 C16     -0.7878  -7.6535 -11.7919   C.3       1 RES1   0.0000
    17 H17     -1.3252  -8.3835 -11.1900   H         1 RES1   0.0000
    18 H18      0.1624  -8.0929 -12.0882   H         1 RES1   0.0000
    19 H19     -0.5810  -6.7859 -11.1688   H         1 RES1   0.0000
    20 C20     -1.7513  -5.9390 -13.3057   C.2       1 RES1   0.0000
    21 C21     -2.0254  -4.9138 -12.2663   C.ar      1 RES1   0.0000
    22 O22     -1.2298  -7.4039 -16.3934   O.2       1 RES1   0.0000
    23 C23     -1.3285  -7.0568 -15.2238   C.2       1 RES1   0.0000
    24 N24     -1.5726  -7.2712 -12.9663   N.3       1 RES1   0.0000
    25 C25     -0.7224 -11.6769 -13.4531   C.3       1 RES1   0.0000
    26 H26     -0.1042 -12.1917 -12.7191   H         1 RES1   0.0000
    27 H27     -0.4328 -11.9899 -14.4551   H         1 RES1   0.0000
    28 C28     -3.0697 -11.3039 -14.1626   C.3       1 RES1   0.0000
    29 H29     -2.8487 -11.6182 -15.1816   H         1 RES1   0.0000
    30 H30     -4.1017 -11.5541 -13.9213   H         1 RES1   0.0000
    31 C31     -2.8821  -9.7983 -14.0527   C.3       1 RES1   0.0000
    32 H32     -3.5059  -9.3064 -14.7976   H         1 RES1   0.0000
    33 H33     -3.1813  -9.4738 -13.0572   H         1 RES1   0.0000
    34 C34     -0.5263 -10.1771 -13.3159   C.3       1 RES1   0.0000
    35 H35     -0.7690  -9.8790 -12.2970   H         1 RES1   0.0000
    36 H36      0.5141  -9.9343 -13.5272   H         1 RES1   0.0000
    37 N37     -2.1592 -12.0195 -13.2209   N.4       1 RES1   1.0000
    38 H38     -2.4064 -11.7644 -12.2702   H         1 RES1   0.0000
    39 H39     -2.2809 -13.0195 -13.3454   H         1 RES1   0.0000
    40 N40     -2.7110  -5.3194 -11.1860   N.ar      1 RES1   0.0000
    41 C41     -1.9384  -2.7348 -11.3712   C.ar      1 RES1   0.0000
    42 H42     -1.6199  -1.7005 -11.4495   H         1 RES1   0.0000
    43 N43     -3.6913  -4.7948  -9.1804   N.pl3     1 RES1   0.0000
    44 H44     -3.8643  -4.1140  -8.4409   H         1 RES1   0.0000
    45 C45     -1.6108  -3.5967 -12.3985   C.ar      1 RES1   0.0000
    46 H46     -1.0576  -3.2589 -13.2686   H         1 RES1   0.0000
    47 C47     -2.9872  -4.3954 -10.2516   C.ar      1 RES1   0.0000
    48 N48     -2.6281  -3.1038 -10.2841   N.ar      1 RES1   0.0000
    49 C49     -4.1718  -6.1615  -8.9784   C.3       1 RES1   0.0000
    50 H50     -4.3215  -6.6316  -9.9628   H         1 RES1   0.0000
    51 C51     -5.4824  -6.2068  -8.2176   C.ar      1 RES1   0.0000
    52 C52     -3.0849  -6.9285  -8.2345   C.3       1 RES1   0.0000
    53 H53     -3.3774  -7.9657  -8.0852   H         1 RES1   0.0000
    54 H54     -2.1511  -6.9169  -8.7928   H         1 RES1   0.0000
    55 H55     -2.9012  -6.4847  -7.2582   H         1 RES1   0.0000
    56 C56     -7.8837  -6.2830  -6.8075   C.ar      1 RES1   0.0000
    57 H57     -8.8192  -6.3121  -6.2588   H         1 RES1   0.0000
    58 C58     -5.5705  -5.6819  -6.9363   C.ar      1 RES1   0.0000
    59 H59     -4.6934  -5.2369  -6.4781   H         1 RES1   0.0000
    60 C60     -6.6180  -6.7733  -8.7801   C.ar      1 RES1   0.0000
    61 H61     -6.5729  -7.1918  -9.7800   H         1 RES1   0.0000
    62 C62     -7.8110  -6.8101  -8.0781   C.ar      1 RES1   0.0000
    63 H63     -8.6907  -7.2554  -8.5307   H         1 RES1   0.0000
    64 C64     -6.7643  -5.7189  -6.2362   C.ar      1 RES1   0.0000
    65 H65     -6.8181  -5.3027  -5.2358   H         1 RES1   0.0000
@<TRIPOS>BOND
     1     1     5   ar
     2     1     6   ar
     3     1     2    1
     4     3     8   ar
     5     3     9   ar
     6     3     4    1
     7     5     9   ar
     8     5    11    1
     9     6     8   ar
    10     6     7    1
    11     8    12    1
    12     9    10    1
    13    11    20    2
    14    11    23    1
    15    13    14    1
    16    13    23   am
    17    13    24    1
    18    14    31    1
    19    14    34    1
    20    14    15    1
    21    16    24    1
    22    16    17    1
    23    16    18    1
    24    16    19    1
    25    20    21    1
    26    20    24    1
    27    21    40   ar
    28    21    45   ar
    29    22    23    2
    30    25    34    1
    31    25    37    1
    32    25    26    1
    33    25    27    1
    34    28    31    1
    35    28    37    1
    36    28    29    1
    37    28    30    1
    38    31    32    1
    39    31    33    1
    40    34    35    1
    41    34    36    1
    42    37    38    1
    43    37    39    1
    44    40    47   ar
    45    41    45   ar
    46    41    48   ar
    47    41    42    1
    48    43    47    1
    49    43    49    1
    50    43    44    1
    51    45    46    1
    52    47    48   ar
    53    49    51    1
    54    49    52    1
    55    49    50    1
    56    51    58   ar
    57    51    60   ar
    58    52    53    1
    59    52    54    1
    60    52    55    1
    61    56    62   ar
    62    56    64   ar
    63    56    57    1
    64    58    64   ar
    65    58    59    1
    66    60    62   ar
    67    60    61    1
    68    62    63    1
    69    64    65    1
@<TRIPOS>SUBSTRUCTURE
     1 RES1        1 GROUP             0 ****  ****    0  
@<TRIPOS>MOLECULE
LIGAND_00288
    65    69     1     0     0
SMALL
USER_CHARGES
****
Generated from the CSD

@<TRIPOS>ATOM
     1 C1      -3.0248  -3.8117 -15.3691   C.ar      1 RES1   0.0000
     2 H2      -3.8579  -4.2218 -14.8086   H         1 RES1   0.0000
     3 C3      -0.9094  -2.7260 -16.7756   C.ar      1 RES1   0.0000
     4 H4      -0.0813  -2.2894 -17.3241   H         1 RES1   0.0000
     5 C5      -1.8085  -4.4880 -15.3803   C.ar      1 RES1   0.0000
     6 C6      -3.1929  -2.6215 -16.0545   C.ar      1 RES1   0.0000
     7 H7      -4.1477  -2.1065 -16.0477   H         1 RES1   0.0000
     8 C8      -2.1271  -2.1087 -16.7387   C.ar      1 RES1   0.0000
     9 C9      -0.7584  -3.9218 -16.0977   C.ar      1 RES1   0.0000
    10 H10      0.2005  -4.4262 -16.1329   H         1 RES1   0.0000
    11 C11     -1.6101  -5.7761 -14.6397   C.2       1 RES1   0.0000
    12 F12     -2.2837  -0.9357 -17.4105   F         1 RES1   0.0000
    13 N13     -1.2406  -7.9410 -14.1570   N.am      1 RES1   0.0000
    14 C14     -1.5106  -9.4109 -14.3092   C.3       1 RES1   0.0000
    15 H15     -1.2171  -9.7059 -15.3156   H         1 RES1   0.0000
    16 C16     -0.8997  -7.6987 -11.7768   C.3       1 RES1   0.0000
    17 H17     -1.4821  -8.4148 -11.2006   H         1 RES1   0.0000
    18 H18      0.0445  -8.1682 -12.0450   H         1 RES1   0.0000
    19 H19     -0.6846  -6.8442 -11.1387   H         1 RES1   0.0000
    20 C20     -1.7513  -5.9390 -13.3057   C.2       1 RES1   0.0000
    21 C21     -2.0254  -4.9138 -12.2663   C.ar      1 RES1   0.0000
    22 O22     -1.1751  -7.3947 -16.3880   O.2       1 RES1   0.0000
    23 C23     -1.3018  -7.0544 -15.2191   C.2       1 RES1   0.0000
    24 N24     -1.6302  -7.2794 -12.9734   N.3       1 RES1   0.0000
    25 C25     -0.9160 -11.7077 -13.4737   C.3       1 RES1   0.0000
    26 H26     -0.3413 -12.2498 -12.7242   H         1 RES1   0.0000
    27 H27     -0.6031 -12.0220 -14.4683   H         1 RES1   0.0000
    28 C28     -3.2233 -11.2475 -14.2589   C.3       1 RES1   0.0000
    29 H29     -2.9785 -11.5605 -15.2727   H         1 RES1   0.0000
    30 H30     -4.2710 -11.4637 -14.0552   H         1 RES1   0.0000
    31 C31     -2.9880  -9.7502 -14.1281   C.3       1 RES1   0.0000
    32 H32     -3.5686  -9.2307 -14.8889   H         1 RES1   0.0000
    33 H33     -3.3098  -9.4240 -13.1402   H         1 RES1   0.0000
    34 C34     -0.6731 -10.2168 -13.3154   C.3       1 RES1   0.0000
    35 H35     -0.9402  -9.9191 -12.3025   H         1 RES1   0.0000
    36 H36      0.3816 -10.0085 -13.4888   H         1 RES1   0.0000
    37 N37     -2.3708 -12.0022 -13.2938   N.4       1 RES1   1.0000
    38 H38     -2.6416 -11.7467 -12.3496   H         1 RES1   0.0000
    39 H39     -2.5225 -12.9962 -13.4320   H         1 RES1   0.0000
    40 N40     -0.9580  -4.3300 -11.6994   N.ar      1 RES1   0.0000
    41 C41     -3.4397  -3.6190 -10.8951   C.ar      1 RES1   0.0000
    42 H42     -4.4387  -3.3344 -10.5815   H         1 RES1   0.0000
    43 N43     -0.1258  -2.8511 -10.1571   N.pl3     1 RES1   0.0000
    44 H44      0.8009  -3.1568 -10.4536   H         1 RES1   0.0000
    45 C45     -3.3148  -4.5762 -11.8818   C.ar      1 RES1   0.0000
    46 H46     -4.1838  -5.0436 -12.3329   H         1 RES1   0.0000
    47 C47     -1.1929  -3.4204 -10.7400   C.ar      1 RES1   0.0000
    48 N48     -2.3968  -3.0232 -10.3026   N.ar      1 RES1   0.0000
    49 C49     -0.2091  -1.8658  -9.0792   C.3       1 RES1   0.0000
    50 H50     -0.8472  -1.0325  -9.4119   H         1 RES1   0.0000
    51 C51      1.1492  -1.3109  -8.6973   C.ar      1 RES1   0.0000
    52 C52     -0.8753  -2.5409  -7.8861   C.3       1 RES1   0.0000
    53 H53     -0.3870  -2.2533  -6.9573   H         1 RES1   0.0000
    54 H54     -1.9243  -2.2607  -7.8182   H         1 RES1   0.0000
    55 H55     -0.8192  -3.6237  -7.9767   H         1 RES1   0.0000
    56 C56      3.6496  -0.3058  -7.9918   C.ar      1 RES1   0.0000
    57 H57      4.6237   0.0857  -7.7178   H         1 RES1   0.0000
    58 C58      2.1491  -2.1546  -8.2352   C.ar      1 RES1   0.0000
    59 H59      1.9544  -3.2183  -8.1471   H         1 RES1   0.0000
    60 C60      1.4226   0.0463  -8.7978   C.ar      1 RES1   0.0000
    61 H61      0.6557   0.7257  -9.1549   H         1 RES1   0.0000
    62 C62      2.6660   0.5444  -8.4471   C.ar      1 RES1   0.0000
    63 H63      2.8657   1.6075  -8.5314   H         1 RES1   0.0000
    64 C64      3.3920  -1.6548  -7.8857   C.ar      1 RES1   0.0000
    65 H65      4.1644  -2.3273  -7.5277   H         1 RES1   0.0000
@<TRIPOS>BOND
     1     1     5   ar
     2     1     6   ar
     3     1     2    1
     4     3     8   ar
     5     3     9   ar
     6     3     4    1
     7     5     9   ar
     8     5    11    1
     9     6     8   ar
    10     6     7    1
    11     8    12    1
    12     9    10    1
    13    11    20    2
    14    11    23    1
    15    13    14    1
    16    13    23   am
    17    13    24    1
    18    14    31    1
    19    14    34    1
    20    14    15    1
    21    16    24    1
    22    16    17    1
    23    16    18    1
    24    16    19    1
    25    20    21    1
    26    20    24    1
    27    21    40   ar
    28    21    45   ar
    29    22    23    2
    30    25    34    1
    31    25    37    1
    32    25    26    1
    33    25    27    1
    34    28    31    1
    35    28    37    1
    36    28    29    1
    37    28    30    1
    38    31    32    1
    39    31    33    1
    40    34    35    1
    41    34    36    1
    42    37    38    1
    43    37    39    1
    44    40    47   ar
    45    41    45   ar
    46    41    48   ar
    47    41    42    1
    48    43    47    1
    49    43    49    1
    50    43    44    1
    51    45    46    1
    52    47    48   ar
    53    49    51    1
    54    49    52    1
    55    49    50    1
    56    51    58   ar
    57    51    60   ar
    58    52    53    1
    59    52    54    1
    60    52    55    1
    61    56    62   ar
    62    56    64   ar
    63    56    57    1
    64    58    64   ar
    65    58    59    1
    66    60    62   ar
    67    60    61    1
    68    62    63    1
    69    64    65    1
@<TRIPOS>SUBSTRUCTURE
     1 RES1        1 GROUP             0 ****  ****    0  
@<TRIPOS>MOLECULE
LIGAND_00289
    65    69     1     0     0
SMALL
USER_CHARGES
****
Generated from the CSD

@<TRIPOS>ATOM
     1 C1       0.0863  -5.6126 -10.5611   C.ar      1 RES1   0.0000
     2 H2       0.2651  -6.6657 -10.3728   H         1 RES1   0.0000
     3 C3      -0.3272  -2.9204 -11.0224   C.ar      1 RES1   0.0000
     4 H4      -0.4802  -1.8606 -11.1978   H         1 RES1   0.0000
     5 C5      -0.3266  -5.2039 -11.8257   C.ar      1 RES1   0.0000
     6 C6       0.2798  -4.7016  -9.5377   C.ar      1 RES1   0.0000
     7 H7       0.5925  -5.0308  -8.5524   H         1 RES1   0.0000
     8 C8       0.0696  -3.3767  -9.7979   C.ar      1 RES1   0.0000
     9 C9      -0.5301  -3.8425 -12.0328   C.ar      1 RES1   0.0000
    10 H10     -0.8587  -3.4910 -13.0042   H         1 RES1   0.0000
    11 C11     -0.5367  -6.1785 -12.9451   C.2       1 RES1   0.0000
    12 F12      0.2633  -2.4746  -8.7976   F         1 RES1   0.0000
    13 N13     -1.2876  -7.9006 -14.1809   N.am      1 RES1   0.0000
    14 C14     -1.6038  -9.3527 -14.4002   C.3       1 RES1   0.0000
    15 H15     -1.2557  -9.6278 -15.3947   H         1 RES1   0.0000
    16 C16     -0.3397  -7.2289 -16.3000   C.3       1 RES1   0.0000
    17 H17      0.6271  -7.3054 -16.7933   H         1 RES1   0.0000
    18 H18     -0.9742  -8.0304 -16.6726   H         1 RES1   0.0000
    19 H19     -0.7907  -6.2799 -16.5822   H         1 RES1   0.0000
    20 C20      0.1718  -6.2104 -14.0953   C.2       1 RES1   0.0000
    21 C21      1.2210  -5.2716 -14.5691   C.ar      1 RES1   0.0000
    22 O22     -2.2468  -7.6738 -12.1052   O.2       1 RES1   0.0000
    23 C23     -1.4713  -7.2699 -12.9618   C.2       1 RES1   0.0000
    24 N24     -0.1890  -7.3179 -14.8472   N.3       1 RES1   0.0000
    25 C25     -1.1559 -11.6970 -13.6062   C.3       1 RES1   0.0000
    26 H26     -0.6539 -12.2855 -12.8396   H         1 RES1   0.0000
    27 H27     -0.7900 -11.9926 -14.5884   H         1 RES1   0.0000
    28 C28     -3.3862 -11.1180 -14.5240   C.3       1 RES1   0.0000
    29 H29     -3.0868 -11.4089 -15.5299   H         1 RES1   0.0000
    30 H30     -4.4527 -11.2973 -14.3966   H         1 RES1   0.0000
    31 C31     -3.1020  -9.6365 -14.3274   C.3       1 RES1   0.0000
    32 H32     -3.6101  -9.0700 -15.1064   H         1 RES1   0.0000
    33 H33     -3.4759  -9.3285 -13.3521   H         1 RES1   0.0000
    34 C34     -0.8663 -10.2230 -13.3819   C.3       1 RES1   0.0000
    35 H35     -1.1884  -9.9465 -12.3790   H         1 RES1   0.0000
    36 H36      0.2049 -10.0528 -13.4789   H         1 RES1   0.0000
    37 N37     -2.6298 -11.9370 -13.5317   N.4       1 RES1   1.0000
    38 H38     -2.9526 -11.7003 -12.5989   H         1 RES1   0.0000
    39 H39     -2.8105 -12.9192 -13.7132   H         1 RES1   0.0000
    40 N40      2.4587  -5.7718 -14.7084   N.ar      1 RES1   0.0000
    41 C41      2.0135  -3.1634 -15.2649   C.ar      1 RES1   0.0000
    42 H42      1.8263  -2.1190 -15.4920   H         1 RES1   0.0000
    43 N43      4.6636  -5.4198 -15.2307   N.pl3     1 RES1   0.0000
    44 H44      5.3850  -4.8110 -15.6171   H         1 RES1   0.0000
    45 C45      0.9517  -3.9390 -14.8450   C.ar      1 RES1   0.0000
    46 H46     -0.0450  -3.5251 -14.7338   H         1 RES1   0.0000
    47 C47      3.4208  -4.9261 -15.1113   C.ar      1 RES1   0.0000
    48 N48      3.2617  -3.6277 -15.4063   N.ar      1 RES1   0.0000
    49 C49      5.0343  -6.7958 -14.9005   C.3       1 RES1   0.0000
    50 H50      4.4239  -7.4809 -15.5090   H         1 RES1   0.0000
    51 C51      4.8088  -7.1195 -13.4366   C.ar      1 RES1   0.0000
    52 C52      6.4986  -6.9837 -15.2792   C.3       1 RES1   0.0000
    53 H53      6.8352  -7.9887 -15.0333   H         1 RES1   0.0000
    54 H54      6.6460  -6.8287 -16.3460   H         1 RES1   0.0000
    55 H55      7.1278  -6.2756 -14.7440   H         1 RES1   0.0000
    56 C56      4.4086  -7.7085 -10.7434   C.ar      1 RES1   0.0000
    57 H57      4.2523  -7.9374  -9.6945   H         1 RES1   0.0000
    58 C58      5.7847  -6.8300 -12.4937   C.ar      1 RES1   0.0000
    59 H59      6.7148  -6.3692 -12.8094   H         1 RES1   0.0000
    60 C60      3.6291  -7.7118 -13.0074   C.ar      1 RES1   0.0000
    61 H61      2.8522  -7.9491 -13.7267   H         1 RES1   0.0000
    62 C62      3.4314  -8.0037 -11.6684   C.ar      1 RES1   0.0000
    63 H63      2.5040  -8.4661 -11.3473   H         1 RES1   0.0000
    64 C64      5.5850  -7.1219 -11.1552   C.ar      1 RES1   0.0000
    65 H65      6.3567  -6.8880 -10.4294   H         1 RES1   0.0000
@<TRIPOS>BOND
     1     1     5   ar
     2     1     6   ar
     3     1     2    1
     4     3     8   ar
     5     3     9   ar
     6     3     4    1
     7     5     9   ar
     8     5    11    1
     9     6     8   ar
    10     6     7    1
    11     8    12    1
    12     9    10    1
    13    11    20    2
    14    11    23    1
    15    13    14    1
    16    13    23   am
    17    13    24    1
    18    14    31    1
    19    14    34    1
    20    14    15    1
    21    16    24    1
    22    16    17    1
    23    16    18    1
    24    16    19    1
    25    20    21    1
    26    20    24    1
    27    21    40   ar
    28    21    45   ar
    29    22    23    2
    30    25    34    1
    31    25    37    1
    32    25    26    1
    33    25    27    1
    34    28    31    1
    35    28    37    1
    36    28    29    1
    37    28    30    1
    38    31    32    1
    39    31    33    1
    40    34    35    1
    41    34    36    1
    42    37    38    1
    43    37    39    1
    44    40    47   ar
    45    41    45   ar
    46    41    48   ar
    47    41    42    1
    48    43    47    1
    49    43    49    1
    50    43    44    1
    51    45    46    1
    52    47    48   ar
    53    49    51    1
    54    49    52    1
    55    49    50    1
    56    51    58   ar
    57    51    60   ar
    58    52    53    1
    59    52    54    1
    60    52    55    1
    61    56    62   ar
    62    56    64   ar
    63    56    57    1
    64    58    64   ar
    65    58    59    1
    66    60    62   ar
    67    60    61    1
    68    62    63    1
    69    64    65    1
@<TRIPOS>SUBSTRUCTURE
     1 RES1        1 GROUP             0 ****  ****    0  
@<TRIPOS>MOLECULE
LIGAND_00290
    65    69     1     0     0
SMALL
USER_CHARGES
****
Generated from the CSD

@<TRIPOS>ATOM
     1 C1       0.5577  -4.8544 -11.1703   C.ar      1 RES1   0.0000
     2 H2       1.4046  -5.5224 -11.2842   H         1 RES1   0.0000
     3 C3      -1.5707  -3.1168 -10.8830   C.ar      1 RES1   0.0000
     4 H4      -2.3994  -2.4257 -10.7693   H         1 RES1   0.0000
     5 C5      -0.5601  -5.0220 -11.9823   C.ar      1 RES1   0.0000
     6 C6       0.6143  -3.8481 -10.2223   C.ar      1 RES1   0.0000
     7 H7       1.4861  -3.7313  -9.5873   H         1 RES1   0.0000
     8 C8      -0.4532  -3.0031 -10.1061   C.ar      1 RES1   0.0000
     9 C9      -1.6202  -4.1351 -11.8172   C.ar      1 RES1   0.0000
    10 H10     -2.5089  -4.2418 -12.4288   H         1 RES1   0.0000
    11 C11     -0.6345  -6.1051 -13.0160   C.2       1 RES1   0.0000
    12 F12     -0.4021  -2.0076  -9.1797   F         1 RES1   0.0000
    13 N13     -1.2081  -7.9676 -14.1378   N.am      1 RES1   0.0000
    14 C14     -1.4477  -9.4469 -14.2414   C.3       1 RES1   0.0000
    15 H15     -1.0043  -9.7966 -15.1726   H         1 RES1   0.0000
    16 C16     -0.1068  -7.4519 -16.2262   C.3       1 RES1   0.0000
    17 H17      0.9013  -7.5286 -16.6283   H         1 RES1   0.0000
    18 H18     -0.6752  -8.3133 -16.5709   H         1 RES1   0.0000
    19 H19     -0.5681  -6.5553 -16.6349   H         1 RES1   0.0000
    20 C20      0.1718  -6.2104 -14.0953   C.2       1 RES1   0.0000
    21 C21      1.2210  -5.2716 -14.5691   C.ar      1 RES1   0.0000
    22 O22     -2.3518  -7.5943 -12.1800   O.2       1 RES1   0.0000
    23 C23     -1.5212  -7.2358 -13.0046   C.2       1 RES1   0.0000
    24 N24     -0.0793  -7.3985 -14.7642   N.3       1 RES1   0.0000
    25 C25     -0.9799 -11.6840 -13.1908   C.3       1 RES1   0.0000
    26 H26     -0.5239 -12.1747 -12.3322   H         1 RES1   0.0000
    27 H27     -0.5191 -12.0520 -14.1063   H         1 RES1   0.0000
    28 C28     -3.1430 -11.2976 -14.3413   C.3       1 RES1   0.0000
    29 H29     -2.7466 -11.6662 -15.2862   H         1 RES1   0.0000
    30 H30     -4.2089 -11.5139 -14.2857   H         1 RES1   0.0000
    31 C31     -2.9345  -9.7926 -14.2657   C.3       1 RES1   0.0000
    32 H32     -3.3947  -9.3251 -15.1349   H         1 RES1   0.0000
    33 H33     -3.4032  -9.4132 -13.3588   H         1 RES1   0.0000
    34 C34     -0.7681 -10.1836 -13.0865   C.3       1 RES1   0.0000
    35 H35     -1.1864  -9.8306 -12.1450   H         1 RES1   0.0000
    36 H36      0.3001  -9.9733 -13.1107   H         1 RES1   0.0000
    37 N37     -2.4444 -11.9847 -13.2155   N.4       1 RES1   1.0000
    38 H38     -2.8557 -11.6778 -12.3398   H         1 RES1   0.0000
    39 H39     -2.5705 -12.9868 -13.3158   H         1 RES1   0.0000
    40 N40      1.0260  -4.7069 -15.7710   N.ar      1 RES1   0.0000
    41 C41      3.2659  -4.1149 -14.3768   C.ar      1 RES1   0.0000
    42 H42      4.1596  -3.8774 -13.8091   H         1 RES1   0.0000
    43 N43      1.7970  -3.3273 -17.4326   N.pl3     1 RES1   0.0000
    44 H44      0.9940  -3.6355 -17.9808   H         1 RES1   0.0000
    45 C45      2.3566  -4.9932 -13.8227   C.ar      1 RES1   0.0000
    46 H46      2.5239  -5.4459 -12.8509   H         1 RES1   0.0000
    47 C47      1.9803  -3.8764 -16.2212   C.ar      1 RES1   0.0000
    48 N48      3.1071  -3.5406 -15.5762   N.ar      1 RES1   0.0000
    49 C49      2.7112  -2.3615 -18.0416   C.3       1 RES1   0.0000
    50 H50      3.7114  -2.8168 -18.1088   H         1 RES1   0.0000
    51 C51      2.8173  -1.0801 -17.2383   C.ar      1 RES1   0.0000
    52 C52      2.2111  -2.0779 -19.4532   C.3       1 RES1   0.0000
    53 H53      2.8453  -1.3452 -19.9478   H         1 RES1   0.0000
    54 H54      2.2100  -2.9853 -20.0536   H         1 RES1   0.0000
    55 H55      1.1963  -1.6862 -19.4298   H         1 RES1   0.0000
    56 C56      2.9995   1.2799 -15.7695   C.ar      1 RES1   0.0000
    57 H57      3.0702   2.1988 -15.1968   H         1 RES1   0.0000
    58 C58      1.9027  -0.0539 -17.4268   C.ar      1 RES1   0.0000
    59 H59      1.1074  -0.1720 -18.1553   H         1 RES1   0.0000
    60 C60      3.8270  -0.9028 -16.3024   C.ar      1 RES1   0.0000
    61 H61      4.5549  -1.6906 -16.1389   H         1 RES1   0.0000
    62 C62      3.9162   0.2707 -15.5728   C.ar      1 RES1   0.0000
    63 H63      4.7104   0.3949 -14.8442   H         1 RES1   0.0000
    64 C64      1.9929   1.1185 -16.6958   C.ar      1 RES1   0.0000
    65 H65      1.2692   1.9112 -16.8532   H         1 RES1   0.0000
@<TRIPOS>BOND
     1     1     5   ar
     2     1     6   ar
     3     1     2    1
     4     3     8   ar
     5     3     9   ar
     6     3     4    1
     7     5     9   ar
     8     5    11    1
     9     6     8   ar
    10     6     7    1
    11     8    12    1
    12     9    10    1
    13    11    20    2
    14    11    23    1
    15    13    14    1
    16    13    23   am
    17    13    24    1
    18    14    31    1
    19    14    34    1
    20    14    15    1
    21    16    24    1
    22    16    17    1
    23    16    18    1
    24    16    19    1
    25    20    21    1
    26    20    24    1
    27    21    40   ar
    28    21    45   ar
    29    22    23    2
    30    25    34    1
    31    25    37    1
    32    25    26    1
    33    25    27    1
    34    28    31    1
    35    28    37    1
    36    28    29    1
    37    28    30    1
    38    31    32    1
    39    31    33    1
    40    34    35    1
    41    34    36    1
    42    37    38    1
    43    37    39    1
    44    40    47   ar
    45    41    45   ar
    46    41    48   ar
    47    41    42    1
    48    43    47    1
    49    43    49    1
    50    43    44    1
    51    45    46    1
    52    47    48   ar
    53    49    51    1
    54    49    52    1
    55    49    50    1
    56    51    58   ar
    57    51    60   ar
    58    52    53    1
    59    52    54    1
    60    52    55    1
    61    56    62   ar
    62    56    64   ar
    63    56    57    1
    64    58    64   ar
    65    58    59    1
    66    60    62   ar
    67    60    61    1
    68    62    63    1
    69    64    65    1
@<TRIPOS>SUBSTRUCTURE
     1 RES1        1 GROUP             0 ****  ****    0  
@<TRIPOS>MOLECULE
LIGAND_00291
    65    69     1     0     0
SMALL
USER_CHARGES
****
Generated from the CSD

@<TRIPOS>ATOM
     1 C1      -0.6105  -3.4053 -15.0058   C.ar      1 RES1   0.0000
     2 H2      -1.6839  -3.4242 -14.8512   H         1 RES1   0.0000
     3 C3       2.1263  -3.3196 -15.3725   C.ar      1 RES1   0.0000
     4 H4       3.2015  -3.2759 -15.5113   H         1 RES1   0.0000
     5 C5       0.1309  -4.5651 -14.8009   C.ar      1 RES1   0.0000
     6 C6      -0.0057  -2.2243 -15.3980   C.ar      1 RES1   0.0000
     7 H7      -0.5933  -1.3277 -15.5647   H         1 RES1   0.0000
     8 C8       1.3500  -2.2131 -15.5686   C.ar      1 RES1   0.0000
     9 C9       1.5078  -4.4970 -14.9939   C.ar      1 RES1   0.0000
    10 H10      2.1142  -5.3839 -14.8495   H         1 RES1   0.0000
    11 C11     -0.5096  -5.8509 -14.3724   C.2       1 RES1   0.0000
    12 F12      1.9523  -1.0536 -15.9489   F         1 RES1   0.0000
    13 N13     -1.2619  -7.9332 -14.1705   N.am      1 RES1   0.0000
    14 C14     -1.5614  -9.3957 -14.3378   C.3       1 RES1   0.0000
    15 H15     -1.1149  -9.7270 -15.2742   H         1 RES1   0.0000
    16 C16     -2.1629  -7.8246 -11.8138   C.3       1 RES1   0.0000
    17 H17     -2.7084  -7.0947 -11.2192   H         1 RES1   0.0000
    18 H18     -2.8428  -8.6381 -12.0583   H         1 RES1   0.0000
    19 H19     -1.3579  -8.2271 -11.2025   H         1 RES1   0.0000
    20 C20     -1.1594  -5.9688 -13.1688   C.2       1 RES1   0.0000
    21 C21     -1.4160  -4.9157 -12.1531   C.ar      1 RES1   0.0000
    22 O22     -0.1469  -7.5152 -16.0874   O.2       1 RES1   0.0000
    23 C23     -0.5834  -7.1229 -15.0132   C.2       1 RES1   0.0000
    24 N24     -1.6302  -7.2089 -13.0298   N.pl3     1 RES1   0.0000
    25 C25     -1.2089 -11.6904 -13.3697   C.3       1 RES1   0.0000
    26 H26     -0.7908 -12.2336 -12.5235   H         1 RES1   0.0000
    27 H27     -0.7461 -12.0414 -14.2909   H         1 RES1   0.0000
    28 C28     -3.3308 -11.1667 -14.5424   C.3       1 RES1   0.0000
    29 H29     -2.9317 -11.5145 -15.4941   H         1 RES1   0.0000
    30 H30     -4.4057 -11.3392 -14.5148   H         1 RES1   0.0000
    31 C31     -3.0607  -9.6762 -14.4026   C.3       1 RES1   0.0000
    32 H32     -3.4836  -9.1555 -15.2605   H         1 RES1   0.0000
    33 H33     -3.5307  -9.3131 -13.4898   H         1 RES1   0.0000
    34 C34     -0.9363 -10.2057 -13.2014   C.3       1 RES1   0.0000
    35 H35     -1.3577  -9.8725 -12.2542   H         1 RES1   0.0000
    36 H36      0.1401 -10.0405 -13.1979   H         1 RES1   0.0000
    37 N37     -2.6839 -11.9269 -13.4328   N.4       1 RES1   1.0000
    38 H38     -3.0991 -11.6374 -12.5530   H         1 RES1   0.0000
    39 H39     -2.8501 -12.9180 -13.5755   H         1 RES1   0.0000
    40 N40     -2.1741  -3.8776 -12.5396   N.ar      1 RES1   0.0000
    41 C41     -1.1917  -3.9353 -10.0211   C.ar      1 RES1   0.0000
    42 H42     -0.7990  -3.9680  -9.0102   H         1 RES1   0.0000
    43 N43     -3.1319  -1.8575 -12.0297   N.pl3     1 RES1   0.0000
    44 H44     -3.4656  -1.8409 -12.9934   H         1 RES1   0.0000
    45 C45     -0.8939  -4.9825 -10.8696   C.ar      1 RES1   0.0000
    46 H46     -0.2788  -5.8165 -10.5484   H         1 RES1   0.0000
    47 C47     -2.3915  -2.9067 -11.6379   C.ar      1 RES1   0.0000
    48 N48     -1.9371  -2.8809 -10.3765   N.ar      1 RES1   0.0000
    49 C49     -3.4370  -0.7067 -11.1800   C.3       1 RES1   0.0000
    50 H50     -3.9015  -1.0688 -10.2497   H         1 RES1   0.0000
    51 C51     -4.3878   0.2680 -11.8466   C.ar      1 RES1   0.0000
    52 C52     -2.1182  -0.0267 -10.8313   C.3       1 RES1   0.0000
    53 H53     -2.2624   1.0408 -10.6791   H         1 RES1   0.0000
    54 H54     -1.6956  -0.4448  -9.9201   H         1 RES1   0.0000
    55 H55     -1.3940  -0.1595 -11.6324   H         1 RES1   0.0000
    56 C56     -6.1248   2.0610 -13.0830   C.ar      1 RES1   0.0000
    57 H57     -6.8017   2.7587 -13.5648   H         1 RES1   0.0000
    58 C58     -4.0428   0.8809 -13.0426   C.ar      1 RES1   0.0000
    59 H59     -3.0848   0.6594 -13.5013   H         1 RES1   0.0000
    60 C60     -5.6178   0.5707 -11.2787   C.ar      1 RES1   0.0000
    61 H61     -5.9087   0.1052 -10.3429   H         1 RES1   0.0000
    62 C62     -6.4803   1.4619 -11.8946   C.ar      1 RES1   0.0000
    63 H63     -7.4387   1.6884 -11.4395   H         1 RES1   0.0000
    64 C64     -4.9068   1.7711 -13.6574   C.ar      1 RES1   0.0000
    65 H65     -4.6236   2.2410 -14.5933   H         1 RES1   0.0000
@<TRIPOS>BOND
     1     1     5   ar
     2     1     6   ar
     3     1     2    1
     4     3     8   ar
     5     3     9   ar
     6     3     4    1
     7     5     9   ar
     8     5    11    1
     9     6     8   ar
    10     6     7    1
    11     8    12    1
    12     9    10    1
    13    11    20    2
    14    11    23    1
    15    13    14    1
    16    13    23   am
    17    13    24    1
    18    14    31    1
    19    14    34    1
    20    14    15    1
    21    16    24    1
    22    16    17    1
    23    16    18    1
    24    16    19    1
    25    20    21    1
    26    20    24    1
    27    21    40   ar
    28    21    45   ar
    29    22    23    2
    30    25    34    1
    31    25    37    1
    32    25    26    1
    33    25    27    1
    34    28    31    1
    35    28    37    1
    36    28    29    1
    37    28    30    1
    38    31    32    1
    39    31    33    1
    40    34    35    1
    41    34    36    1
    42    37    38    1
    43    37    39    1
    44    40    47   ar
    45    41    45   ar
    46    41    48   ar
    47    41    42    1
    48    43    47    1
    49    43    49    1
    50    43    44    1
    51    45    46    1
    52    47    48   ar
    53    49    51    1
    54    49    52    1
    55    49    50    1
    56    51    58   ar
    57    51    60   ar
    58    52    53    1
    59    52    54    1
    60    52    55    1
    61    56    62   ar
    62    56    64   ar
    63    56    57    1
    64    58    64   ar
    65    58    59    1
    66    60    62   ar
    67    60    61    1
    68    62    63    1
    69    64    65    1
@<TRIPOS>SUBSTRUCTURE
     1 RES1        1 GROUP             0 ****  ****    0  
@<TRIPOS>MOLECULE
LIGAND_00292
    65    69     1     0     0
SMALL
USER_CHARGES
****
Generated from the CSD

@<TRIPOS>ATOM
     1 C1      -0.3703  -3.8964 -15.9918   C.ar      1 RES1   0.0000
     2 H2      -1.1645  -4.3349 -16.5863   H         1 RES1   0.0000
     3 C3       1.6295  -2.7390 -14.4775   C.ar      1 RES1   0.0000
     4 H4       2.4100  -2.2744 -13.8841   H         1 RES1   0.0000
     5 C5       0.0598  -4.5461 -14.8387   C.ar      1 RES1   0.0000
     6 C6       0.1908  -2.6973 -16.3943   C.ar      1 RES1   0.0000
     7 H7      -0.1445  -2.2032 -17.3000   H         1 RES1   0.0000
     8 C8       1.1761  -2.1488 -15.6226   C.ar      1 RES1   0.0000
     9 C9       1.0698  -3.9439 -14.0937   C.ar      1 RES1   0.0000
    10 H10      1.4330  -4.4268 -13.1936   H         1 RES1   0.0000
    11 C11     -0.5410  -5.8434 -14.3880   C.2       1 RES1   0.0000
    12 F12      1.7287  -0.9669 -16.0094   F         1 RES1   0.0000
    13 N13     -1.2406  -7.9411 -14.1570   N.am      1 RES1   0.0000
    14 C14     -1.5105  -9.4109 -14.3091   C.3       1 RES1   0.0000
    15 H15     -1.0787  -9.7377 -15.2540   H         1 RES1   0.0000
    16 C16     -2.0881  -7.8387 -11.7803   C.3       1 RES1   0.0000
    17 H17     -2.6358  -7.1177 -11.1769   H         1 RES1   0.0000
    18 H18     -2.7549  -8.6688 -12.0042   H         1 RES1   0.0000
    19 H19     -1.2600  -8.2193 -11.1861   H         1 RES1   0.0000
    20 C20     -1.1594  -5.9688 -13.1688   C.2       1 RES1   0.0000
    21 C21     -1.4160  -4.9157 -12.1531   C.ar      1 RES1   0.0000
    22 O22     -0.1809  -7.5094 -16.1021   O.2       1 RES1   0.0000
    23 C23     -0.6007  -7.1206 -15.0200   C.2       1 RES1   0.0000
    24 N24     -1.5984  -7.2185 -13.0119   N.pl3     1 RES1   0.0000
    25 C25     -1.0830 -11.6911 -13.3371   C.3       1 RES1   0.0000
    26 H26     -0.6329 -12.2196 -12.4980   H         1 RES1   0.0000
    27 H27     -0.6341 -12.0371 -14.2670   H         1 RES1   0.0000
    28 C28     -3.2433 -11.2228 -14.4622   C.3       1 RES1   0.0000
    29 H29     -2.8588 -11.5672 -15.4211   H         1 RES1   0.0000
    30 H30     -4.3130 -11.4195 -14.4082   H         1 RES1   0.0000
    31 C31     -3.0040  -9.7257 -14.3370   C.3       1 RES1   0.0000
    32 H32     -3.4588  -9.2200 -15.1875   H         1 RES1   0.0000
    33 H33     -3.4606  -9.3679 -13.4153   H         1 RES1   0.0000
    34 C34     -0.8404 -10.1997 -13.1834   C.3       1 RES1   0.0000
    35 H35     -1.2470  -9.8704 -12.2283   H         1 RES1   0.0000
    36 H36      0.2317 -10.0101 -13.2063   H         1 RES1   0.0000
    37 N37     -2.5533 -11.9614 -13.3640   N.4       1 RES1   1.0000
    38 H38     -2.9542 -11.6762 -12.4762   H         1 RES1   0.0000
    39 H39     -2.7001 -12.9569 -13.4973   H         1 RES1   0.0000
    40 N40     -0.8662  -5.0993 -10.9425   N.ar      1 RES1   0.0000
    41 C41     -2.3708  -2.8985 -11.3940   C.ar      1 RES1   0.0000
    42 H42     -2.9709  -2.0147 -11.5841   H         1 RES1   0.0000
    43 N43     -0.5809  -4.3597  -8.7908   N.pl3     1 RES1   0.0000
    44 H44     -0.7111  -3.6293  -8.0908   H         1 RES1   0.0000
    45 C45     -2.1938  -3.7996 -12.4246   C.ar      1 RES1   0.0000
    46 H46     -2.6438  -3.6432 -13.3994   H         1 RES1   0.0000
    47 C47     -1.1127  -4.1667 -10.0084   C.ar      1 RES1   0.0000
    48 N48     -1.8442  -3.0549 -10.1726   N.ar      1 RES1   0.0000
    49 C49      0.2268  -5.5227  -8.4241   C.3       1 RES1   0.0000
    50 H50      0.4421  -5.4764  -7.3453   H         1 RES1   0.0000
    51 C51      1.5418  -5.5737  -9.1769   C.ar      1 RES1   0.0000
    52 C52     -0.6057  -6.7693  -8.6998   C.3       1 RES1   0.0000
    53 H53     -0.3870  -7.5485  -7.9726   H         1 RES1   0.0000
    54 H54     -1.6690  -6.5450  -8.6464   H         1 RES1   0.0000
    55 H55     -0.3920  -7.1624  -9.6916   H         1 RES1   0.0000
    56 C56      3.9611  -5.6811 -10.5538   C.ar      1 RES1   0.0000
    57 H57      4.9029  -5.7231 -11.0907   H         1 RES1   0.0000
    58 C58      2.3908  -6.6621  -9.0370   C.ar      1 RES1   0.0000
    59 H59      2.1092  -7.4808  -8.3830   H         1 RES1   0.0000
    60 C60      1.9267  -4.5379 -10.0171   C.ar      1 RES1   0.0000
    61 H61      1.2801  -3.6756 -10.1411   H         1 RES1   0.0000
    62 C62      3.1294  -4.5929 -10.7012   C.ar      1 RES1   0.0000
    63 H63      3.4169  -3.7763 -11.3550   H         1 RES1   0.0000
    64 C64      3.5926  -6.7156  -9.7223   C.ar      1 RES1   0.0000
    65 H65      4.2451  -7.5743  -9.6040   H         1 RES1   0.0000
@<TRIPOS>BOND
     1     1     5   ar
     2     1     6   ar
     3     1     2    1
     4     3     8   ar
     5     3     9   ar
     6     3     4    1
     7     5     9   ar
     8     5    11    1
     9     6     8   ar
    10     6     7    1
    11     8    12    1
    12     9    10    1
    13    11    20    2
    14    11    23    1
    15    13    14    1
    16    13    23   am
    17    13    24    1
    18    14    31    1
    19    14    34    1
    20    14    15    1
    21    16    24    1
    22    16    17    1
    23    16    18    1
    24    16    19    1
    25    20    21    1
    26    20    24    1
    27    21    40   ar
    28    21    45   ar
    29    22    23    2
    30    25    34    1
    31    25    37    1
    32    25    26    1
    33    25    27    1
    34    28    31    1
    35    28    37    1
    36    28    29    1
    37    28    30    1
    38    31    32    1
    39    31    33    1
    40    34    35    1
    41    34    36    1
    42    37    38    1
    43    37    39    1
    44    40    47   ar
    45    41    45   ar
    46    41    48   ar
    47    41    42    1
    48    43    47    1
    49    43    49    1
    50    43    44    1
    51    45    46    1
    52    47    48   ar
    53    49    51    1
    54    49    52    1
    55    49    50    1
    56    51    58   ar
    57    51    60   ar
    58    52    53    1
    59    52    54    1
    60    52    55    1
    61    56    62   ar
    62    56    64   ar
    63    56    57    1
    64    58    64   ar
    65    58    59    1
    66    60    62   ar
    67    60    61    1
    68    62    63    1
    69    64    65    1
@<TRIPOS>SUBSTRUCTURE
     1 RES1        1 GROUP             0 ****  ****    0  
@<TRIPOS>MOLECULE
LIGAND_00293
    65    69     1     0     0
SMALL
USER_CHARGES
****
Generated from the CSD

@<TRIPOS>ATOM
     1 C1      -0.7027  -3.3903 -14.9781   C.ar      1 RES1   0.0000
     2 H2      -1.7635  -3.4211 -14.7543   H         1 RES1   0.0000
     3 C3       2.0037  -3.2747 -15.5205   C.ar      1 RES1   0.0000
     4 H4       3.0672  -3.2194 -15.7282   H         1 RES1   0.0000
     5 C5       0.0599  -4.5461 -14.8386   C.ar      1 RES1   0.0000
     6 C6      -0.1343  -2.1985 -15.3916   C.ar      1 RES1   0.0000
     7 H7      -0.7388  -1.3050 -15.5067   H         1 RES1   0.0000
     8 C8       1.2073  -2.1727 -15.6497   C.ar      1 RES1   0.0000
     9 C9       1.4207  -4.4628 -15.1196   C.ar      1 RES1   0.0000
    10 H10      2.0424  -5.3462 -15.0278   H         1 RES1   0.0000
    11 C11     -0.5410  -5.8434 -14.3880   C.2       1 RES1   0.0000
    12 F12      1.7741  -1.0026 -16.0515   F         1 RES1   0.0000
    13 N13     -1.2406  -7.9410 -14.1570   N.am      1 RES1   0.0000
    14 C14     -1.5106  -9.4109 -14.3092   C.3       1 RES1   0.0000
    15 H15     -1.0788  -9.7377 -15.2541   H         1 RES1   0.0000
    16 C16     -2.0882  -7.8386 -11.7803   C.3       1 RES1   0.0000
    17 H17     -2.6361  -7.1177 -11.1770   H         1 RES1   0.0000
    18 H18     -2.7549  -8.6688 -12.0043   H         1 RES1   0.0000
    19 H19     -1.2602  -8.2192 -11.1860   H         1 RES1   0.0000
    20 C20     -1.1594  -5.9688 -13.1688   C.2       1 RES1   0.0000
    21 C21     -1.4160  -4.9157 -12.1531   C.ar      1 RES1   0.0000
    22 O22     -0.1808  -7.5094 -16.1020   O.2       1 RES1   0.0000
    23 C23     -0.6007  -7.1206 -15.0199   C.2       1 RES1   0.0000
    24 N24     -1.5984  -7.2184 -13.0119   N.pl3     1 RES1   0.0000
    25 C25     -1.0832 -11.6911 -13.3372   C.3       1 RES1   0.0000
    26 H26     -0.6331 -12.2196 -12.4982   H         1 RES1   0.0000
    27 H27     -0.6343 -12.0371 -14.2671   H         1 RES1   0.0000
    28 C28     -3.2435 -11.2227 -14.4623   C.3       1 RES1   0.0000
    29 H29     -2.8590 -11.5671 -15.4212   H         1 RES1   0.0000
    30 H30     -4.3132 -11.4194 -14.4082   H         1 RES1   0.0000
    31 C31     -3.0042  -9.7256 -14.3370   C.3       1 RES1   0.0000
    32 H32     -3.4589  -9.2199 -15.1875   H         1 RES1   0.0000
    33 H33     -3.4607  -9.3678 -13.4154   H         1 RES1   0.0000
    34 C34     -0.8406 -10.1997 -13.1835   C.3       1 RES1   0.0000
    35 H35     -1.2471  -9.8704 -12.2284   H         1 RES1   0.0000
    36 H36      0.2316 -10.0101 -13.2064   H         1 RES1   0.0000
    37 N37     -2.5535 -11.9614 -13.3641   N.4       1 RES1   1.0000
    38 H38     -2.9544 -11.6761 -12.4763   H         1 RES1   0.0000
    39 H39     -2.7003 -12.9568 -13.4974   H         1 RES1   0.0000
    40 N40     -2.6992  -4.6898 -11.8302   N.ar      1 RES1   0.0000
    41 C41     -0.7580  -3.2243 -10.6488   C.ar      1 RES1   0.0000
    42 H42      0.0265  -2.6440 -10.1743   H         1 RES1   0.0000
    43 N43     -4.2293  -3.4806 -10.6241   N.pl3     1 RES1   0.0000
    44 H44     -4.9480  -4.0000 -11.1281   H         1 RES1   0.0000
    45 C45     -0.3913  -4.1856 -11.5689   C.ar      1 RES1   0.0000
    46 H46      0.6486  -4.3597 -11.8246   H         1 RES1   0.0000
    47 C47     -2.9451  -3.7222 -10.9322   C.ar      1 RES1   0.0000
    48 N48     -2.0280  -2.9671 -10.3100   N.ar      1 RES1   0.0000
    49 C49     -4.6645  -2.4742  -9.6559   C.3       1 RES1   0.0000
    50 H50     -5.7536  -2.5632  -9.5204   H         1 RES1   0.0000
    51 C51     -4.3482  -1.0622 -10.1082   C.ar      1 RES1   0.0000
    52 C52     -3.9832  -2.7849  -8.3282   C.3       1 RES1   0.0000
    53 H53     -4.6301  -2.5266  -7.4925   H         1 RES1   0.0000
    54 H54     -3.7415  -3.8431  -8.2550   H         1 RES1   0.0000
    55 H55     -3.0595  -2.2188  -8.2288   H         1 RES1   0.0000
    56 C56     -3.7720   1.5378 -10.9258   C.ar      1 RES1   0.0000
    57 H57     -3.5468   2.5503 -11.2440   H         1 RES1   0.0000
    58 C58     -4.5920   0.0162  -9.2700   C.ar      1 RES1   0.0000
    59 H59     -5.0125  -0.1553  -8.2847   H         1 RES1   0.0000
    60 C60     -3.8127  -0.8157 -11.3649   C.ar      1 RES1   0.0000
    61 H61     -3.6151  -1.6430 -12.0385   H         1 RES1   0.0000
    62 C62     -3.5264   0.4772 -11.7698   C.ar      1 RES1   0.0000
    63 H63     -3.1075   0.6547 -12.7547   H         1 RES1   0.0000
    64 C64     -4.3045   1.3082  -9.6763   C.ar      1 RES1   0.0000
    65 H65     -4.4990   2.1411  -9.0089   H         1 RES1   0.0000
@<TRIPOS>BOND
     1     1     5   ar
     2     1     6   ar
     3     1     2    1
     4     3     8   ar
     5     3     9   ar
     6     3     4    1
     7     5     9   ar
     8     5    11    1
     9     6     8   ar
    10     6     7    1
    11     8    12    1
    12     9    10    1
    13    11    20    2
    14    11    23    1
    15    13    14    1
    16    13    23   am
    17    13    24    1
    18    14    31    1
    19    14    34    1
    20    14    15    1
    21    16    24    1
    22    16    17    1
    23    16    18    1
    24    16    19    1
    25    20    21    1
    26    20    24    1
    27    21    40   ar
    28    21    45   ar
    29    22    23    2
    30    25    34    1
    31    25    37    1
    32    25    26    1
    33    25    27    1
    34    28    31    1
    35    28    37    1
    36    28    29    1
    37    28    30    1
    38    31    32    1
    39    31    33    1
    40    34    35    1
    41    34    36    1
    42    37    38    1
    43    37    39    1
    44    40    47   ar
    45    41    45   ar
    46    41    48   ar
    47    41    42    1
    48    43    47    1
    49    43    49    1
    50    43    44    1
    51    45    46    1
    52    47    48   ar
    53    49    51    1
    54    49    52    1
    55    49    50    1
    56    51    58   ar
    57    51    60   ar
    58    52    53    1
    59    52    54    1
    60    52    55    1
    61    56    62   ar
    62    56    64   ar
    63    56    57    1
    64    58    64   ar
    65    58    59    1
    66    60    62   ar
    67    60    61    1
    68    62    63    1
    69    64    65    1
@<TRIPOS>SUBSTRUCTURE
     1 RES1        1 GROUP             0 ****  ****    0  
@<TRIPOS>MOLECULE
LIGAND_00294
    65    69     1     0     0
SMALL
USER_CHARGES
****
Generated from the CSD

@<TRIPOS>ATOM
     1 C1      -0.3701  -3.8964 -15.9918   C.ar      1 RES1   0.0000
     2 H2      -1.1642  -4.3349 -16.5863   H         1 RES1   0.0000
     3 C3       1.6297  -2.7392 -14.4773   C.ar      1 RES1   0.0000
     4 H4       2.4102  -2.2746 -13.8839   H         1 RES1   0.0000
     5 C5       0.0599  -4.5461 -14.8386   C.ar      1 RES1   0.0000
     6 C6       0.1911  -2.6974 -16.3942   C.ar      1 RES1   0.0000
     7 H7      -0.1441  -2.2032 -17.2999   H         1 RES1   0.0000
     8 C8       1.1764  -2.1489 -15.6225   C.ar      1 RES1   0.0000
     9 C9       1.0700  -3.9440 -14.0935   C.ar      1 RES1   0.0000
    10 H10      1.4331  -4.4269 -13.1935   H         1 RES1   0.0000
    11 C11     -0.5410  -5.8434 -14.3880   C.2       1 RES1   0.0000
    12 F12      1.7291  -0.9670 -16.0092   F         1 RES1   0.0000
    13 N13     -1.2406  -7.9410 -14.1570   N.am      1 RES1   0.0000
    14 C14     -1.5106  -9.4109 -14.3092   C.3       1 RES1   0.0000
    15 H15     -1.0788  -9.7377 -15.2541   H         1 RES1   0.0000
    16 C16     -2.0882  -7.8386 -11.7803   C.3       1 RES1   0.0000
    17 H17     -2.6361  -7.1177 -11.1770   H         1 RES1   0.0000
    18 H18     -2.7549  -8.6688 -12.0043   H         1 RES1   0.0000
    19 H19     -1.2602  -8.2192 -11.1860   H         1 RES1   0.0000
    20 C20     -1.1594  -5.9688 -13.1688   C.2       1 RES1   0.0000
    21 C21     -1.4160  -4.9157 -12.1531   C.ar      1 RES1   0.0000
    22 O22     -0.1808  -7.5094 -16.1020   O.2       1 RES1   0.0000
    23 C23     -0.6007  -7.1206 -15.0199   C.2       1 RES1   0.0000
    24 N24     -1.5984  -7.2184 -13.0119   N.pl3     1 RES1   0.0000
    25 C25     -1.0832 -11.6911 -13.3372   C.3       1 RES1   0.0000
    26 H26     -0.6331 -12.2196 -12.4982   H         1 RES1   0.0000
    27 H27     -0.6343 -12.0371 -14.2671   H         1 RES1   0.0000
    28 C28     -3.2435 -11.2227 -14.4623   C.3       1 RES1   0.0000
    29 H29     -2.8590 -11.5671 -15.4212   H         1 RES1   0.0000
    30 H30     -4.3132 -11.4194 -14.4082   H         1 RES1   0.0000
    31 C31     -3.0042  -9.7256 -14.3370   C.3       1 RES1   0.0000
    32 H32     -3.4589  -9.2199 -15.1875   H         1 RES1   0.0000
    33 H33     -3.4607  -9.3678 -13.4154   H         1 RES1   0.0000
    34 C34     -0.8406 -10.1997 -13.1835   C.3       1 RES1   0.0000
    35 H35     -1.2471  -9.8704 -12.2284   H         1 RES1   0.0000
    36 H36      0.2316 -10.0101 -13.2064   H         1 RES1   0.0000
    37 N37     -2.5535 -11.9614 -13.3641   N.4       1 RES1   1.0000
    38 H38     -2.9544 -11.6761 -12.4763   H         1 RES1   0.0000
    39 H39     -2.7003 -12.9568 -13.4974   H         1 RES1   0.0000
    40 N40     -0.8662  -5.0993 -10.9425   N.ar      1 RES1   0.0000
    41 C41     -2.3708  -2.8985 -11.3940   C.ar      1 RES1   0.0000
    42 H42     -2.9709  -2.0147 -11.5841   H         1 RES1   0.0000
    43 N43     -0.5809  -4.3597  -8.7908   N.pl3     1 RES1   0.0000
    44 H44     -0.0709  -5.2271  -8.6236   H         1 RES1   0.0000
    45 C45     -2.1938  -3.7996 -12.4246   C.ar      1 RES1   0.0000
    46 H46     -2.6438  -3.6432 -13.3994   H         1 RES1   0.0000
    47 C47     -1.1127  -4.1667 -10.0084   C.ar      1 RES1   0.0000
    48 N48     -1.8442  -3.0549 -10.1726   N.ar      1 RES1   0.0000
    49 C49     -0.7407  -3.4330  -7.6703   C.3       1 RES1   0.0000
    50 H50     -0.1167  -3.7817  -6.8329   H         1 RES1   0.0000
    51 C51     -2.1778  -3.3419  -7.1962   C.ar      1 RES1   0.0000
    52 C52     -0.2299  -2.0697  -8.1215   C.3       1 RES1   0.0000
    53 H53      0.2292  -1.5355  -7.2923   H         1 RES1   0.0000
    54 H54      0.5131  -2.1754  -8.9092   H         1 RES1   0.0000
    55 H55     -1.0462  -1.4614  -8.5054   H         1 RES1   0.0000
    56 C56     -4.8145  -3.1631  -6.3151   C.ar      1 RES1   0.0000
    57 H57     -5.8416  -3.0931  -5.9725   H         1 RES1   0.0000
    58 C58     -2.5375  -2.4327  -6.2118   C.ar      1 RES1   0.0000
    59 H59     -1.7826  -1.7841  -5.7798   H         1 RES1   0.0000
    60 C60     -3.1618  -4.1624  -7.7305   C.ar      1 RES1   0.0000
    61 H61     -2.9041  -4.8823  -8.5001   H         1 RES1   0.0000
    62 C62     -4.4721  -4.0721  -7.2918   C.ar      1 RES1   0.0000
    63 H63     -5.2307  -4.7194  -7.7189   H         1 RES1   0.0000
    64 C64     -3.8482  -2.3434  -5.7749   C.ar      1 RES1   0.0000
    65 H65     -4.1144  -1.6262  -5.0056   H         1 RES1   0.0000
@<TRIPOS>BOND
     1     1     5   ar
     2     1     6   ar
     3     1     2    1
     4     3     8   ar
     5     3     9   ar
     6     3     4    1
     7     5     9   ar
     8     5    11    1
     9     6     8   ar
    10     6     7    1
    11     8    12    1
    12     9    10    1
    13    11    20    2
    14    11    23    1
    15    13    14    1
    16    13    23   am
    17    13    24    1
    18    14    31    1
    19    14    34    1
    20    14    15    1
    21    16    24    1
    22    16    17    1
    23    16    18    1
    24    16    19    1
    25    20    21    1
    26    20    24    1
    27    21    40   ar
    28    21    45   ar
    29    22    23    2
    30    25    34    1
    31    25    37    1
    32    25    26    1
    33    25    27    1
    34    28    31    1
    35    28    37    1
    36    28    29    1
    37    28    30    1
    38    31    32    1
    39    31    33    1
    40    34    35    1
    41    34    36    1
    42    37    38    1
    43    37    39    1
    44    40    47   ar
    45    41    45   ar
    46    41    48   ar
    47    41    42    1
    48    43    47    1
    49    43    49    1
    50    43    44    1
    51    45    46    1
    52    47    48   ar
    53    49    51    1
    54    49    52    1
    55    49    50    1
    56    51    58   ar
    57    51    60   ar
    58    52    53    1
    59    52    54    1
    60    52    55    1
    61    56    62   ar
    62    56    64   ar
    63    56    57    1
    64    58    64   ar
    65    58    59    1
    66    60    62   ar
    67    60    61    1
    68    62    63    1
    69    64    65    1
@<TRIPOS>SUBSTRUCTURE
     1 RES1        1 GROUP             0 ****  ****    0  
@<TRIPOS>MOLECULE
LIGAND_00295
    65    69     1     0     0
SMALL
USER_CHARGES
****
Generated from the CSD

@<TRIPOS>ATOM
     1 C1      -0.4278  -3.4234 -14.9910   C.ar      1 RES1   0.0000
     2 H2      -1.5097  -3.4068 -14.9157   H         1 RES1   0.0000
     3 C3       2.3298  -3.4280 -15.1557   C.ar      1 RES1   0.0000
     4 H4       3.4132  -3.4198 -15.2152   H         1 RES1   0.0000
     5 C5       0.2585  -4.6051 -14.7273   C.ar      1 RES1   0.0000
     6 C6       0.2422  -2.2650 -15.3425   C.ar      1 RES1   0.0000
     7 H7      -0.3021  -1.3511 -15.5557   H         1 RES1   0.0000
     8 C8       1.6065  -2.2985 -15.4130   C.ar      1 RES1   0.0000
     9 C9       1.6473  -4.5825 -14.8187   C.ar      1 RES1   0.0000
    10 H10      2.2123  -5.4875 -14.6265   H         1 RES1   0.0000
    11 C11     -0.4533  -5.8668 -14.3417   C.2       1 RES1   0.0000
    12 F12      2.2724  -1.1614 -15.7528   F         1 RES1   0.0000
    13 N13     -1.2999  -7.9174 -14.1965   N.am      1 RES1   0.0000
    14 C14     -1.6525  -9.3642 -14.3935   C.3       1 RES1   0.0000
    15 H15     -1.1797  -9.7050 -15.3134   H         1 RES1   0.0000
    16 C16     -2.2977  -7.7936 -11.8799   C.3       1 RES1   0.0000
    17 H17     -2.8377  -7.0472 -11.3011   H         1 RES1   0.0000
    18 H18     -2.9996  -8.5753 -12.1630   H         1 RES1   0.0000
    19 H19     -1.5377  -8.2357 -11.2391   H         1 RES1   0.0000
    20 C20     -1.1594  -5.9688 -13.1688   C.2       1 RES1   0.0000
    21 C21     -1.4160  -4.9157 -12.1531   C.ar      1 RES1   0.0000
    22 O22     -0.0857  -7.5282 -16.0585   O.2       1 RES1   0.0000
    23 C23     -0.5519  -7.1283 -14.9997   C.2       1 RES1   0.0000
    24 N24     -1.6872  -7.1893 -13.0645   N.pl3     1 RES1   0.0000
    25 C25     -1.4387 -11.6810 -13.4375   C.3       1 RES1   0.0000
    26 H26     -1.0811 -12.2495 -12.5803   H         1 RES1   0.0000
    27 H27     -0.9511 -12.0423 -14.3417   H         1 RES1   0.0000
    28 C28     -3.4836 -11.0569 -14.6949   C.3       1 RES1   0.0000
    29 H29     -3.0581 -11.4120 -15.6323   H         1 RES1   0.0000
    30 H30     -4.5649 -11.1843 -14.7157   H         1 RES1   0.0000
    31 C31     -3.1579  -9.5805 -14.5263   C.3       1 RES1   0.0000
    32 H32     -3.5208  -9.0343 -15.3957   H         1 RES1   0.0000
    33 H33     -3.6518  -9.2068 -13.6306   H         1 RES1   0.0000
    34 C34     -1.1120 -10.2109 -13.2405   C.3       1 RES1   0.0000
    35 H35     -1.5602  -9.8693 -12.3086   H         1 RES1   0.0000
    36 H36     -0.0308 -10.0912 -13.1885   H         1 RES1   0.0000
    37 N37     -2.9181 -11.8544 -13.5671   N.4       1 RES1   1.0000
    38 H38     -3.3590 -11.5563 -12.7028   H         1 RES1   0.0000
    39 H39     -3.1191 -12.8362 -13.7282   H         1 RES1   0.0000
    40 N40     -0.8662  -5.0993 -10.9425   N.ar      1 RES1   0.0000
    41 C41     -2.3708  -2.8985 -11.3940   C.ar      1 RES1   0.0000
    42 H42     -2.9709  -2.0147 -11.5841   H         1 RES1   0.0000
    43 N43     -0.5809  -4.3597  -8.7908   N.pl3     1 RES1   0.0000
    44 H44     -0.7107  -3.6291  -8.0910   H         1 RES1   0.0000
    45 C45     -2.1938  -3.7996 -12.4246   C.ar      1 RES1   0.0000
    46 H46     -2.6438  -3.6432 -13.3994   H         1 RES1   0.0000
    47 C47     -1.1127  -4.1667 -10.0084   C.ar      1 RES1   0.0000
    48 N48     -1.8442  -3.0549 -10.1726   N.ar      1 RES1   0.0000
    49 C49      0.2263  -5.5230  -8.4239   C.3       1 RES1   0.0000
    50 H50      0.4413  -5.4768  -7.3450   H         1 RES1   0.0000
    51 C51      1.5414  -5.5744  -9.1764   C.ar      1 RES1   0.0000
    52 C52     -0.6066  -6.7693  -8.6998   C.3       1 RES1   0.0000
    53 H53     -0.3737  -7.5557  -7.9849   H         1 RES1   0.0000
    54 H54     -1.6696  -6.5491  -8.6268   H         1 RES1   0.0000
    55 H55     -0.4078  -7.1508  -9.6992   H         1 RES1   0.0000
    56 C56      3.9610  -5.6828 -10.5528   C.ar      1 RES1   0.0000
    57 H57      4.9030  -5.7252 -11.0894   H         1 RES1   0.0000
    58 C58      2.3903  -6.6628  -9.0357   C.ar      1 RES1   0.0000
    59 H59      2.1085  -7.4812  -8.3815   H         1 RES1   0.0000
    60 C60      1.9267  -4.5392 -10.0170   C.ar      1 RES1   0.0000
    61 H61      1.2801  -3.6769 -10.1416   H         1 RES1   0.0000
    62 C62      3.1294  -4.5946 -10.7008   C.ar      1 RES1   0.0000
    63 H63      3.4172  -3.7783 -11.3550   H         1 RES1   0.0000
    64 C64      3.5923  -6.7169  -9.7208   C.ar      1 RES1   0.0000
    65 H65      4.2447  -7.5755  -9.6019   H         1 RES1   0.0000
@<TRIPOS>BOND
     1     1     5   ar
     2     1     6   ar
     3     1     2    1
     4     3     8   ar
     5     3     9   ar
     6     3     4    1
     7     5     9   ar
     8     5    11    1
     9     6     8   ar
    10     6     7    1
    11     8    12    1
    12     9    10    1
    13    11    20    2
    14    11    23    1
    15    13    14    1
    16    13    23   am
    17    13    24    1
    18    14    31    1
    19    14    34    1
    20    14    15    1
    21    16    24    1
    22    16    17    1
    23    16    18    1
    24    16    19    1
    25    20    21    1
    26    20    24    1
    27    21    40   ar
    28    21    45   ar
    29    22    23    2
    30    25    34    1
    31    25    37    1
    32    25    26    1
    33    25    27    1
    34    28    31    1
    35    28    37    1
    36    28    29    1
    37    28    30    1
    38    31    32    1
    39    31    33    1
    40    34    35    1
    41    34    36    1
    42    37    38    1
    43    37    39    1
    44    40    47   ar
    45    41    45   ar
    46    41    48   ar
    47    41    42    1
    48    43    47    1
    49    43    49    1
    50    43    44    1
    51    45    46    1
    52    47    48   ar
    53    49    51    1
    54    49    52    1
    55    49    50    1
    56    51    58   ar
    57    51    60   ar
    58    52    53    1
    59    52    54    1
    60    52    55    1
    61    56    62   ar
    62    56    64   ar
    63    56    57    1
    64    58    64   ar
    65    58    59    1
    66    60    62   ar
    67    60    61    1
    68    62    63    1
    69    64    65    1
@<TRIPOS>SUBSTRUCTURE
     1 RES1        1 GROUP             0 ****  ****    0  
@<TRIPOS>MOLECULE
LIGAND_00296
    65    69     1     0     0
SMALL
USER_CHARGES
****
Generated from the CSD

@<TRIPOS>ATOM
     1 C1      -0.4285  -3.4235 -14.9915   C.ar      1 RES1   0.0000
     2 H2      -1.5104  -3.4071 -14.9163   H         1 RES1   0.0000
     3 C3       2.3291  -3.4274 -15.1560   C.ar      1 RES1   0.0000
     4 H4       3.4125  -3.4190 -15.2154   H         1 RES1   0.0000
     5 C5       0.2580  -4.6049 -14.7276   C.ar      1 RES1   0.0000
     6 C6       0.2413  -2.2649 -15.3432   C.ar      1 RES1   0.0000
     7 H7      -0.3033  -1.3512 -15.5566   H         1 RES1   0.0000
     8 C8       1.6055  -2.2981 -15.4136   C.ar      1 RES1   0.0000
     9 C9       1.6468  -4.5820 -14.8189   C.ar      1 RES1   0.0000
    10 H10      2.2120  -5.4868 -14.6265   H         1 RES1   0.0000
    11 C11     -0.4535  -5.8667 -14.3418   C.2       1 RES1   0.0000
    12 F12      2.2712  -1.1610 -15.7535   F         1 RES1   0.0000
    13 N13     -1.2997  -7.9174 -14.1964   N.am      1 RES1   0.0000
    14 C14     -1.6522  -9.3644 -14.3932   C.3       1 RES1   0.0000
    15 H15     -1.1795  -9.7051 -15.3132   H         1 RES1   0.0000
    16 C16     -2.2972  -7.7938 -11.8797   C.3       1 RES1   0.0000
    17 H17     -2.8372  -7.0474 -11.3008   H         1 RES1   0.0000
    18 H18     -2.9990  -8.5756 -12.1626   H         1 RES1   0.0000
    19 H19     -1.5371  -8.2357 -11.2389   H         1 RES1   0.0000
    20 C20     -1.1594  -5.9688 -13.1688   C.2       1 RES1   0.0000
    21 C21     -1.4160  -4.9157 -12.1531   C.ar      1 RES1   0.0000
    22 O22     -0.0859  -7.5281 -16.0586   O.2       1 RES1   0.0000
    23 C23     -0.5521  -7.1282 -14.9998   C.2       1 RES1   0.0000
    24 N24     -1.6870  -7.1894 -13.0644   N.pl3     1 RES1   0.0000
    25 C25     -1.4378 -11.6810 -13.4372   C.3       1 RES1   0.0000
    26 H26     -1.0800 -12.2495 -12.5801   H         1 RES1   0.0000
    27 H27     -0.9503 -12.0423 -14.3415   H         1 RES1   0.0000
    28 C28     -3.4831 -11.0573 -14.6943   C.3       1 RES1   0.0000
    29 H29     -3.0577 -11.4124 -15.6318   H         1 RES1   0.0000
    30 H30     -4.5644 -11.1848 -14.7150   H         1 RES1   0.0000
    31 C31     -3.1576  -9.5809 -14.5259   C.3       1 RES1   0.0000
    32 H32     -3.5207  -9.0347 -15.3952   H         1 RES1   0.0000
    33 H33     -3.6514  -9.2072 -13.6301   H         1 RES1   0.0000
    34 C34     -1.1114 -10.2109 -13.2403   C.3       1 RES1   0.0000
    35 H35     -1.5595  -9.8693 -12.3084   H         1 RES1   0.0000
    36 H36     -0.0302 -10.0911 -13.1885   H         1 RES1   0.0000
    37 N37     -2.9173 -11.8547 -13.5666   N.4       1 RES1   1.0000
    38 H38     -3.3581 -11.5566 -12.7023   H         1 RES1   0.0000
    39 H39     -3.1181 -12.8365 -13.7276   H         1 RES1   0.0000
    40 N40     -0.8662  -5.0993 -10.9425   N.ar      1 RES1   0.0000
    41 C41     -2.3708  -2.8985 -11.3940   C.ar      1 RES1   0.0000
    42 H42     -2.9709  -2.0147 -11.5841   H         1 RES1   0.0000
    43 N43     -0.5809  -4.3597  -8.7908   N.pl3     1 RES1   0.0000
    44 H44     -0.0711  -5.2271  -8.6236   H         1 RES1   0.0000
    45 C45     -2.1938  -3.7996 -12.4246   C.ar      1 RES1   0.0000
    46 H46     -2.6438  -3.6432 -13.3994   H         1 RES1   0.0000
    47 C47     -1.1127  -4.1667 -10.0084   C.ar      1 RES1   0.0000
    48 N48     -1.8442  -3.0549 -10.1726   N.ar      1 RES1   0.0000
    49 C49     -0.7405  -3.4329  -7.6704   C.3       1 RES1   0.0000
    50 H50     -0.1165  -3.7816  -6.8329   H         1 RES1   0.0000
    51 C51     -2.1776  -3.3417  -7.1961   C.ar      1 RES1   0.0000
    52 C52     -0.2297  -2.0697  -8.1217   C.3       1 RES1   0.0000
    53 H53      0.2289  -1.5352  -7.2924   H         1 RES1   0.0000
    54 H54      0.5137  -2.1755  -8.9091   H         1 RES1   0.0000
    55 H55     -1.0459  -1.4616  -8.5062   H         1 RES1   0.0000
    56 C56     -4.8142  -3.1626  -6.3148   C.ar      1 RES1   0.0000
    57 H57     -5.8413  -3.0925  -5.9722   H         1 RES1   0.0000
    58 C58     -2.5372  -2.4324  -6.2118   C.ar      1 RES1   0.0000
    59 H59     -1.7822  -1.7838  -5.7799   H         1 RES1   0.0000
    60 C60     -3.1617  -4.1621  -7.7303   C.ar      1 RES1   0.0000
    61 H61     -2.9041  -4.8822  -8.4999   H         1 RES1   0.0000
    62 C62     -4.4719  -4.0717  -7.2915   C.ar      1 RES1   0.0000
    63 H63     -5.2307  -4.7190  -7.7185   H         1 RES1   0.0000
    64 C64     -3.8478  -2.3429  -5.7748   C.ar      1 RES1   0.0000
    65 H65     -4.1139  -1.6256  -5.0055   H         1 RES1   0.0000
@<TRIPOS>BOND
     1     1     5   ar
     2     1     6   ar
     3     1     2    1
     4     3     8   ar
     5     3     9   ar
     6     3     4    1
     7     5     9   ar
     8     5    11    1
     9     6     8   ar
    10     6     7    1
    11     8    12    1
    12     9    10    1
    13    11    20    2
    14    11    23    1
    15    13    14    1
    16    13    23   am
    17    13    24    1
    18    14    31    1
    19    14    34    1
    20    14    15    1
    21    16    24    1
    22    16    17    1
    23    16    18    1
    24    16    19    1
    25    20    21    1
    26    20    24    1
    27    21    40   ar
    28    21    45   ar
    29    22    23    2
    30    25    34    1
    31    25    37    1
    32    25    26    1
    33    25    27    1
    34    28    31    1
    35    28    37    1
    36    28    29    1
    37    28    30    1
    38    31    32    1
    39    31    33    1
    40    34    35    1
    41    34    36    1
    42    37    38    1
    43    37    39    1
    44    40    47   ar
    45    41    45   ar
    46    41    48   ar
    47    41    42    1
    48    43    47    1
    49    43    49    1
    50    43    44    1
    51    45    46    1
    52    47    48   ar
    53    49    51    1
    54    49    52    1
    55    49    50    1
    56    51    58   ar
    57    51    60   ar
    58    52    53    1
    59    52    54    1
    60    52    55    1
    61    56    62   ar
    62    56    64   ar
    63    56    57    1
    64    58    64   ar
    65    58    59    1
    66    60    62   ar
    67    60    61    1
    68    62    63    1
    69    64    65    1
@<TRIPOS>SUBSTRUCTURE
     1 RES1        1 GROUP             0 ****  ****    0  
@<TRIPOS>MOLECULE
LIGAND_00297
    65    69     1     0     0
SMALL
USER_CHARGES
****
Generated from the CSD

@<TRIPOS>ATOM
     1 C1      -0.7661  -3.8367 -15.9790   C.ar      1 RES1   0.0000
     2 H2      -1.6383  -4.2802 -16.4469   H         1 RES1   0.0000
     3 C3       1.4319  -2.6671 -14.7821   C.ar      1 RES1   0.0000
     4 H4       2.2900  -2.1977 -14.3123   H         1 RES1   0.0000
     5 C5      -0.1374  -4.5040 -14.9320   C.ar      1 RES1   0.0000
     6 C6      -0.3048  -2.6138 -16.4333   C.ar      1 RES1   0.0000
     7 H7      -0.7958  -2.1056 -17.2565   H         1 RES1   0.0000
     8 C8       0.7829  -2.0599 -15.8190   C.ar      1 RES1   0.0000
     9 C9       0.9692  -3.8953 -14.3466   C.ar      1 RES1   0.0000
    10 H10      1.4865  -4.3913 -13.5333   H         1 RES1   0.0000
    11 C11     -0.6277  -5.8274 -14.4266   C.2       1 RES1   0.0000
    12 F12      1.2387  -0.8548 -16.2570   F         1 RES1   0.0000
    13 N13     -1.1810  -7.9592 -14.1231   N.am      1 RES1   0.0000
    14 C14     -1.3690  -9.4452 -14.2379   C.3       1 RES1   0.0000
    15 H15     -0.9781  -9.7615 -15.2039   H         1 RES1   0.0000
    16 C16     -1.8822  -7.8671 -11.6988   C.3       1 RES1   0.0000
    17 H17     -2.4344  -7.1703 -11.0715   H         1 RES1   0.0000
    18 H18     -2.5094  -8.7398 -11.8685   H         1 RES1   0.0000
    19 H19     -0.9966  -8.1865 -11.1535   H         1 RES1   0.0000
    20 C20     -1.1594  -5.9688 -13.1688   C.2       1 RES1   0.0000
    21 C21     -1.4160  -4.9157 -12.1531   C.ar      1 RES1   0.0000
    22 O22     -0.2741  -7.4980 -16.1374   O.2       1 RES1   0.0000
    23 C23     -0.6483  -7.1166 -15.0361   C.2       1 RES1   0.0000
    24 N24     -1.5099  -7.2398 -12.9674   N.pl3     1 RES1   0.0000
    25 C25     -0.7418 -11.6781 -13.2645   C.3       1 RES1   0.0000
    26 H26     -0.2082 -12.1637 -12.4488   H         1 RES1   0.0000
    27 H27     -0.3317 -12.0123 -14.2163   H         1 RES1   0.0000
    28 C28     -2.9932 -11.3610 -14.2557   C.3       1 RES1   0.0000
    29 H29     -2.6493 -11.6981 -15.2325   H         1 RES1   0.0000
    30 H30     -4.0433 -11.6211 -14.1309   H         1 RES1   0.0000
    31 C31     -2.8391  -9.8502 -14.1662   C.3       1 RES1   0.0000
    32 H32     -3.3767  -9.3878 -14.9927   H         1 RES1   0.0000
    33 H33     -3.2581  -9.5048 -13.2222   H         1 RES1   0.0000
    34 C34     -0.5823 -10.1723 -13.1467   C.3       1 RES1   0.0000
    35 H35     -0.9475  -9.8516 -12.1721   H         1 RES1   0.0000
    36 H36      0.4726  -9.9185 -13.2404   H         1 RES1   0.0000
    37 N37     -2.1915 -12.0373 -13.1939   N.4       1 RES1   1.0000
    38 H38     -2.5526 -11.7615 -12.2863   H         1 RES1   0.0000
    39 H39     -2.2848 -13.0420 -13.3041   H         1 RES1   0.0000
    40 N40     -2.6992  -4.6898 -11.8302   N.ar      1 RES1   0.0000
    41 C41     -0.7580  -3.2243 -10.6488   C.ar      1 RES1   0.0000
    42 H42      0.0265  -2.6440 -10.1743   H         1 RES1   0.0000
    43 N43     -4.2293  -3.4806 -10.6241   N.pl3     1 RES1   0.0000
    44 H44     -4.9480  -3.9999 -11.1282   H         1 RES1   0.0000
    45 C45     -0.3913  -4.1856 -11.5689   C.ar      1 RES1   0.0000
    46 H46      0.6486  -4.3597 -11.8246   H         1 RES1   0.0000
    47 C47     -2.9451  -3.7222 -10.9322   C.ar      1 RES1   0.0000
    48 N48     -2.0280  -2.9671 -10.3100   N.ar      1 RES1   0.0000
    49 C49     -4.6645  -2.4744  -9.6557   C.3       1 RES1   0.0000
    50 H50     -5.7536  -2.5634  -9.5202   H         1 RES1   0.0000
    51 C51     -4.3483  -1.0623 -10.1079   C.ar      1 RES1   0.0000
    52 C52     -3.9832  -2.7852  -8.3282   C.3       1 RES1   0.0000
    53 H53     -4.6487  -2.5741  -7.4938   H         1 RES1   0.0000
    54 H54     -3.6962  -3.8333  -8.2759   H         1 RES1   0.0000
    55 H55     -3.0859  -2.1819  -8.2064   H         1 RES1   0.0000
    56 C56     -3.7722   1.5378 -10.9252   C.ar      1 RES1   0.0000
    57 H57     -3.5471   2.5504 -11.2434   H         1 RES1   0.0000
    58 C58     -4.5919   0.0160  -9.2695   C.ar      1 RES1   0.0000
    59 H59     -5.0122  -0.1556  -8.2841   H         1 RES1   0.0000
    60 C60     -3.8131  -0.8156 -11.3647   C.ar      1 RES1   0.0000
    61 H61     -3.6157  -1.6427 -12.0385   H         1 RES1   0.0000
    62 C62     -3.5269   0.4773 -11.7695   C.ar      1 RES1   0.0000
    63 H63     -3.1082   0.6550 -12.7544   H         1 RES1   0.0000
    64 C64     -4.3044   1.3080  -9.6756   C.ar      1 RES1   0.0000
    65 H65     -4.4988   2.1409  -9.0081   H         1 RES1   0.0000
@<TRIPOS>BOND
     1     1     5   ar
     2     1     6   ar
     3     1     2    1
     4     3     8   ar
     5     3     9   ar
     6     3     4    1
     7     5     9   ar
     8     5    11    1
     9     6     8   ar
    10     6     7    1
    11     8    12    1
    12     9    10    1
    13    11    20    2
    14    11    23    1
    15    13    14    1
    16    13    23   am
    17    13    24    1
    18    14    31    1
    19    14    34    1
    20    14    15    1
    21    16    24    1
    22    16    17    1
    23    16    18    1
    24    16    19    1
    25    20    21    1
    26    20    24    1
    27    21    40   ar
    28    21    45   ar
    29    22    23    2
    30    25    34    1
    31    25    37    1
    32    25    26    1
    33    25    27    1
    34    28    31    1
    35    28    37    1
    36    28    29    1
    37    28    30    1
    38    31    32    1
    39    31    33    1
    40    34    35    1
    41    34    36    1
    42    37    38    1
    43    37    39    1
    44    40    47   ar
    45    41    45   ar
    46    41    48   ar
    47    41    42    1
    48    43    47    1
    49    43    49    1
    50    43    44    1
    51    45    46    1
    52    47    48   ar
    53    49    51    1
    54    49    52    1
    55    49    50    1
    56    51    58   ar
    57    51    60   ar
    58    52    53    1
    59    52    54    1
    60    52    55    1
    61    56    62   ar
    62    56    64   ar
    63    56    57    1
    64    58    64   ar
    65    58    59    1
    66    60    62   ar
    67    60    61    1
    68    62    63    1
    69    64    65    1
@<TRIPOS>SUBSTRUCTURE
     1 RES1        1 GROUP             0 ****  ****    0  
@<TRIPOS>MOLECULE
LIGAND_00298
    65    69     1     0     0
SMALL
USER_CHARGES
****
Generated from the CSD

@<TRIPOS>ATOM
     1 C1      -0.7915  -3.8413 -15.9882   C.ar      1 RES1   0.0000
     2 H2      -1.6611  -4.2928 -16.4534   H         1 RES1   0.0000
     3 C3       1.3995  -2.6518 -14.7983   C.ar      1 RES1   0.0000
     4 H4       2.2548  -2.1746 -14.3312   H         1 RES1   0.0000
     5 C5      -0.1563  -4.5008 -14.9402   C.ar      1 RES1   0.0000
     6 C6      -0.3401  -2.6165 -16.4469   C.ar      1 RES1   0.0000
     7 H7      -0.8361  -2.1145 -17.2709   H         1 RES1   0.0000
     8 C8       0.7444  -2.0526 -15.8361   C.ar      1 RES1   0.0000
     9 C9       0.9466  -3.8820 -14.3583   C.ar      1 RES1   0.0000
    10 H10      1.4688  -4.3717 -13.5443   H         1 RES1   0.0000
    11 C11     -0.6360  -5.8262 -14.4299   C.2       1 RES1   0.0000
    12 F12      1.1906  -0.8455 -16.2784   F         1 RES1   0.0000
    13 N13     -1.1752  -7.9607 -14.1201   N.am      1 RES1   0.0000
    14 C14     -1.3553  -9.4479 -14.2317   C.3       1 RES1   0.0000
    15 H15     -0.9680  -9.7634 -15.1993   H         1 RES1   0.0000
    16 C16     -1.8626  -7.8690 -11.6918   C.3       1 RES1   0.0000
    17 H17     -2.4121  -7.1734 -11.0609   H         1 RES1   0.0000
    18 H18     -2.4885  -8.7437 -11.8564   H         1 RES1   0.0000
    19 H19     -0.9720  -8.1855 -11.1528   H         1 RES1   0.0000
    20 C20     -1.1594  -5.9688 -13.1688   C.2       1 RES1   0.0000
    21 C21     -1.4160  -4.9157 -12.1531   C.ar      1 RES1   0.0000
    22 O22     -0.2830  -7.4972 -16.1404   O.2       1 RES1   0.0000
    23 C23     -0.6528  -7.1164 -15.0375   C.2       1 RES1   0.0000
    24 N24     -1.5014  -7.2415 -12.9634   N.pl3     1 RES1   0.0000
    25 C25     -0.7101 -11.6757 -13.2584   C.3       1 RES1   0.0000
    26 H26     -0.1693 -12.1570 -12.4449   H         1 RES1   0.0000
    27 H27     -0.3034 -12.0090 -14.2120   H         1 RES1   0.0000
    28 C28     -2.9687 -11.3729 -14.2377   C.3       1 RES1   0.0000
    29 H29     -2.6283 -11.7095 -15.2158   H         1 RES1   0.0000
    30 H30     -4.0166 -11.6389 -14.1067   H         1 RES1   0.0000
    31 C31     -2.8228  -9.8612 -14.1513   C.3       1 RES1   0.0000
    32 H32     -3.3675  -9.4031 -14.9755   H         1 RES1   0.0000
    33 H33     -3.2385  -9.5167 -13.2055   H         1 RES1   0.0000
    34 C34     -0.5586 -10.1688 -13.1437   C.3       1 RES1   0.0000
    35 H35     -0.9203  -9.8488 -12.1676   H         1 RES1   0.0000
    36 H36      0.4943  -9.9092 -13.2436   H         1 RES1   0.0000
    37 N37     -2.1573 -12.0431 -13.1793   N.4       1 RES1   1.0000
    38 H38     -2.5150 -11.7679 -12.2701   H         1 RES1   0.0000
    39 H39     -2.2455 -13.0484 -13.2875   H         1 RES1   0.0000
    40 N40     -2.6992  -4.6898 -11.8302   N.ar      1 RES1   0.0000
    41 C41     -0.7580  -3.2243 -10.6488   C.ar      1 RES1   0.0000
    42 H42      0.0265  -2.6440 -10.1743   H         1 RES1   0.0000
    43 N43     -4.2293  -3.4806 -10.6241   N.pl3     1 RES1   0.0000
    44 H44     -4.4255  -2.7889  -9.9006   H         1 RES1   0.0000
    45 C45     -0.3913  -4.1856 -11.5689   C.ar      1 RES1   0.0000
    46 H46      0.6486  -4.3597 -11.8246   H         1 RES1   0.0000
    47 C47     -2.9451  -3.7222 -10.9322   C.ar      1 RES1   0.0000
    48 N48     -2.0280  -2.9671 -10.3100   N.ar      1 RES1   0.0000
    49 C49     -5.3621  -4.1921 -11.2158   C.3       1 RES1   0.0000
    50 H50     -6.2946  -3.7203 -10.8692   H         1 RES1   0.0000
    51 C51     -5.3899  -5.6577 -10.8289   C.ar      1 RES1   0.0000
    52 C52     -5.2698  -4.0312 -12.7287   C.3       1 RES1   0.0000
    53 H53     -6.2617  -3.9897 -13.1738   H         1 RES1   0.0000
    54 H54     -4.7429  -3.1158 -12.9897   H         1 RES1   0.0000
    55 H55     -4.7346  -4.8682 -13.1721   H         1 RES1   0.0000
    56 C56     -5.4529  -8.3530 -10.1277   C.ar      1 RES1   0.0000
    57 H57     -5.4769  -9.4029  -9.8550   H         1 RES1   0.0000
    58 C58     -6.3303  -6.5140 -11.3834   C.ar      1 RES1   0.0000
    59 H59     -7.0500  -6.1289 -12.0982   H         1 RES1   0.0000
    60 C60     -4.4823  -6.1745  -9.9145   C.ar      1 RES1   0.0000
    61 H61     -3.7388  -5.5239  -9.4664   H         1 RES1   0.0000
    62 C62     -4.5146  -7.5146  -9.5672   C.ar      1 RES1   0.0000
    63 H63     -3.7985  -7.9047  -8.8516   H         1 RES1   0.0000
    64 C64     -6.3607  -7.8537 -11.0355   C.ar      1 RES1   0.0000
    65 H65     -7.1010  -8.5112 -11.4789   H         1 RES1   0.0000
@<TRIPOS>BOND
     1     1     5   ar
     2     1     6   ar
     3     1     2    1
     4     3     8   ar
     5     3     9   ar
     6     3     4    1
     7     5     9   ar
     8     5    11    1
     9     6     8   ar
    10     6     7    1
    11     8    12    1
    12     9    10    1
    13    11    20    2
    14    11    23    1
    15    13    14    1
    16    13    23   am
    17    13    24    1
    18    14    31    1
    19    14    34    1
    20    14    15    1
    21    16    24    1
    22    16    17    1
    23    16    18    1
    24    16    19    1
    25    20    21    1
    26    20    24    1
    27    21    40   ar
    28    21    45   ar
    29    22    23    2
    30    25    34    1
    31    25    37    1
    32    25    26    1
    33    25    27    1
    34    28    31    1
    35    28    37    1
    36    28    29    1
    37    28    30    1
    38    31    32    1
    39    31    33    1
    40    34    35    1
    41    34    36    1
    42    37    38    1
    43    37    39    1
    44    40    47   ar
    45    41    45   ar
    46    41    48   ar
    47    41    42    1
    48    43    47    1
    49    43    49    1
    50    43    44    1
    51    45    46    1
    52    47    48   ar
    53    49    51    1
    54    49    52    1
    55    49    50    1
    56    51    58   ar
    57    51    60   ar
    58    52    53    1
    59    52    54    1
    60    52    55    1
    61    56    62   ar
    62    56    64   ar
    63    56    57    1
    64    58    64   ar
    65    58    59    1
    66    60    62   ar
    67    60    61    1
    68    62    63    1
    69    64    65    1
@<TRIPOS>SUBSTRUCTURE
     1 RES1        1 GROUP             0 ****  ****    0  
@<TRIPOS>MOLECULE
LIGAND_00299
    65    69     1     0     0
SMALL
USER_CHARGES
****
Generated from the CSD

@<TRIPOS>ATOM
     1 C1       0.3359  -4.0444 -15.7323   C.ar      1 RES1   0.0000
     2 H2      -0.3718  -4.4422 -16.4516   H         1 RES1   0.0000
     3 C3       2.1186  -2.9892 -13.9046   C.ar      1 RES1   0.0000
     4 H4       2.8149  -2.5644 -13.1891   H         1 RES1   0.0000
     5 C5       0.5126  -4.6946 -14.5146   C.ar      1 RES1   0.0000
     6 C6       1.0410  -2.8953 -16.0437   C.ar      1 RES1   0.0000
     7 H7       0.9036  -2.4008 -16.9995   H         1 RES1   0.0000
     8 C8       1.9135  -2.3965 -15.1178   C.ar      1 RES1   0.0000
     9 C9       1.4177  -4.1446 -13.6113   C.ar      1 RES1   0.0000
    10 H10      1.5844  -4.6299 -12.6564   H         1 RES1   0.0000
    11 C11     -0.2467  -5.9380 -14.1617   C.2       1 RES1   0.0000
    12 F12      2.6063  -1.2636 -15.4151   F         1 RES1   0.0000
    13 N13     -1.2406  -7.9410 -14.1570   N.am      1 RES1   0.0000
    14 C14     -1.5106  -9.4109 -14.3092   C.3       1 RES1   0.0000
    15 H15     -0.9492  -9.7701 -15.1705   H         1 RES1   0.0000
    16 C16     -2.9634  -7.4981 -12.4712   C.3       1 RES1   0.0000
    17 H17     -3.2162  -6.7695 -11.7036   H         1 RES1   0.0000
    18 H18     -3.7034  -7.4237 -13.2653   H         1 RES1   0.0000
    19 H19     -3.0343  -8.4914 -12.0331   H         1 RES1   0.0000
    20 C20     -1.0688  -6.0097 -13.0848   C.2       1 RES1   0.0000
    21 C21     -1.4087  -4.9383 -12.1137   C.ar      1 RES1   0.0000
    22 O22      0.2750  -7.5989 -15.8623   O.2       1 RES1   0.0000
    23 C23     -0.3156  -7.1911 -14.8707   C.2       1 RES1   0.0000
    24 N24     -1.6169  -7.2574 -12.9912   N.3       1 RES1   0.0000
    25 C25     -1.2718 -11.6681 -13.2252   C.3       1 RES1   0.0000
    26 H26     -0.9605 -12.1785 -12.3150   H         1 RES1   0.0000
    27 H27     -0.6961 -12.0463 -14.0686   H         1 RES1   0.0000
    28 C28     -3.2329 -11.2030 -14.6709   C.3       1 RES1   0.0000
    29 H29     -2.7165 -11.5796 -15.5527   H         1 RES1   0.0000
    30 H30     -4.3020 -11.3838 -14.7715   H         1 RES1   0.0000
    31 C31     -2.9888  -9.7063 -14.5507   C.3       1 RES1   0.0000
    32 H32     -3.3034  -9.2190 -15.4723   H         1 RES1   0.0000
    33 H33     -3.5707  -9.3164 -13.7168   H         1 RES1   0.0000
    34 C34     -1.0288 -10.1763 -13.0761   C.3       1 RES1   0.0000
    35 H35     -1.5667  -9.8146 -12.2011   H         1 RES1   0.0000
    36 H36      0.0380 -10.0017 -12.9442   H         1 RES1   0.0000
    37 N37     -2.7264 -11.9193 -13.4634   N.4       1 RES1   1.0000
    38 H38     -3.2495 -11.6036 -12.6529   H         1 RES1   0.0000
    39 H39     -2.8692 -12.9161 -13.5910   H         1 RES1   0.0000
    40 N40     -0.6191  -4.8314 -11.0335   N.ar      1 RES1   0.0000
    41 C41     -2.7138  -3.1449 -11.3153   C.ar      1 RES1   0.0000
    42 H42     -3.5526  -2.4677 -11.4379   H         1 RES1   0.0000
    43 N43     -0.1558  -3.7890  -9.0443   N.pl3     1 RES1   0.0000
    44 H44     -0.3438  -3.0315  -8.3877   H         1 RES1   0.0000
    45 C45     -2.4926  -4.0918 -12.2950   C.ar      1 RES1   0.0000
    46 H46     -3.1376  -4.1714 -13.1639   H         1 RES1   0.0000
    47 C47     -0.9320  -3.8832 -10.1357   C.ar      1 RES1   0.0000
    48 N48     -1.9515  -3.0164 -10.2217   N.ar      1 RES1   0.0000
    49 C49      0.9822  -4.6660  -8.7696   C.3       1 RES1   0.0000
    50 H50      1.4209  -4.9848  -9.7279   H         1 RES1   0.0000
    51 C51      0.5839  -5.9014  -7.9864   C.ar      1 RES1   0.0000
    52 C52      2.0207  -3.8510  -8.0077   C.3       1 RES1   0.0000
    53 H53      2.9071  -4.4482  -7.8044   H         1 RES1   0.0000
    54 H54      2.3248  -2.9777  -8.5809   H         1 RES1   0.0000
    55 H55      1.6180  -3.5084  -7.0568   H         1 RES1   0.0000
    56 C56     -0.1384  -8.1673  -6.5357   C.ar      1 RES1   0.0000
    57 H57     -0.4204  -9.0494  -5.9704   H         1 RES1   0.0000
    58 C58      1.1387  -6.1533  -6.7398   C.ar      1 RES1   0.0000
    59 H59      1.8628  -5.4596  -6.3256   H         1 RES1   0.0000
    60 C60     -0.3378  -6.8060  -8.4954   C.ar      1 RES1   0.0000
    61 H61     -0.7837  -6.6311  -9.4689   H         1 RES1   0.0000
    62 C62     -0.6962  -7.9316  -7.7730   C.ar      1 RES1   0.0000
    63 H63     -1.4184  -8.6296  -8.1831   H         1 RES1   0.0000
    64 C64      0.7786  -7.2789  -6.0186   C.ar      1 RES1   0.0000
    65 H65      1.2198  -7.4613  -5.0444   H         1 RES1   0.0000
@<TRIPOS>BOND
     1     1     5   ar
     2     1     6   ar
     3     1     2    1
     4     3     8   ar
     5     3     9   ar
     6     3     4    1
     7     5     9   ar
     8     5    11    1
     9     6     8   ar
    10     6     7    1
    11     8    12    1
    12     9    10    1
    13    11    20    2
    14    11    23    1
    15    13    14    1
    16    13    23   am
    17    13    24    1
    18    14    31    1
    19    14    34    1
    20    14    15    1
    21    16    24    1
    22    16    17    1
    23    16    18    1
    24    16    19    1
    25    20    21    1
    26    20    24    1
    27    21    40   ar
    28    21    45   ar
    29    22    23    2
    30    25    34    1
    31    25    37    1
    32    25    26    1
    33    25    27    1
    34    28    31    1
    35    28    37    1
    36    28    29    1
    37    28    30    1
    38    31    32    1
    39    31    33    1
    40    34    35    1
    41    34    36    1
    42    37    38    1
    43    37    39    1
    44    40    47   ar
    45    41    45   ar
    46    41    48   ar
    47    41    42    1
    48    43    47    1
    49    43    49    1
    50    43    44    1
    51    45    46    1
    52    47    48   ar
    53    49    51    1
    54    49    52    1
    55    49    50    1
    56    51    58   ar
    57    51    60   ar
    58    52    53    1
    59    52    54    1
    60    52    55    1
    61    56    62   ar
    62    56    64   ar
    63    56    57    1
    64    58    64   ar
    65    58    59    1
    66    60    62   ar
    67    60    61    1
    68    62    63    1
    69    64    65    1
@<TRIPOS>SUBSTRUCTURE
     1 RES1        1 GROUP             0 ****  ****    0  
@<TRIPOS>MOLECULE
LIGAND_00300
    65    69     1     0     0
SMALL
USER_CHARGES
****
Generated from the CSD

@<TRIPOS>ATOM
     1 C1      -0.1313  -3.4938 -14.7980   C.ar      1 RES1   0.0000
     2 H2      -1.2144  -3.4482 -14.7628   H         1 RES1   0.0000
     3 C3       2.6295  -3.5726 -14.8604   C.ar      1 RES1   0.0000
     4 H4       3.7141  -3.5935 -14.8797   H         1 RES1   0.0000
     5 C5       0.5126  -4.6946 -14.5146   C.ar      1 RES1   0.0000
     6 C6       0.5824  -2.3527 -15.1190   C.ar      1 RES1   0.0000
     7 H7       0.0712  -1.4236 -15.3478   H         1 RES1   0.0000
     8 C8       1.9469  -2.4229 -15.1390   C.ar      1 RES1   0.0000
     9 C9       1.9040  -4.7094 -14.5545   C.ar      1 RES1   0.0000
    10 H10      2.4368  -5.6301 -14.3457   H         1 RES1   0.0000
    11 C11     -0.2467  -5.9380 -14.1617   C.2       1 RES1   0.0000
    12 F12      2.6554  -1.3031 -15.4485   F         1 RES1   0.0000
    13 N13     -1.2406  -7.9410 -14.1570   N.am      1 RES1   0.0000
    14 C14     -1.5106  -9.4109 -14.3092   C.3       1 RES1   0.0000
    15 H15     -0.9492  -9.7701 -15.1705   H         1 RES1   0.0000
    16 C16     -2.9634  -7.4981 -12.4712   C.3       1 RES1   0.0000
    17 H17     -3.2162  -6.7695 -11.7036   H         1 RES1   0.0000
    18 H18     -3.7034  -7.4237 -13.2653   H         1 RES1   0.0000
    19 H19     -3.0343  -8.4914 -12.0331   H         1 RES1   0.0000
    20 C20     -1.0688  -6.0097 -13.0848   C.2       1 RES1   0.0000
    21 C21     -1.4087  -4.9383 -12.1137   C.ar      1 RES1   0.0000
    22 O22      0.2750  -7.5989 -15.8623   O.2       1 RES1   0.0000
    23 C23     -0.3156  -7.1911 -14.8707   C.2       1 RES1   0.0000
    24 N24     -1.6169  -7.2574 -12.9912   N.3       1 RES1   0.0000
    25 C25     -1.2718 -11.6681 -13.2252   C.3       1 RES1   0.0000
    26 H26     -0.9605 -12.1785 -12.3150   H         1 RES1   0.0000
    27 H27     -0.6961 -12.0463 -14.0686   H         1 RES1   0.0000
    28 C28     -3.2329 -11.2030 -14.6709   C.3       1 RES1   0.0000
    29 H29     -2.7165 -11.5796 -15.5527   H         1 RES1   0.0000
    30 H30     -4.3020 -11.3838 -14.7715   H         1 RES1   0.0000
    31 C31     -2.9888  -9.7063 -14.5507   C.3       1 RES1   0.0000
    32 H32     -3.3034  -9.2190 -15.4723   H         1 RES1   0.0000
    33 H33     -3.5707  -9.3164 -13.7168   H         1 RES1   0.0000
    34 C34     -1.0288 -10.1763 -13.0761   C.3       1 RES1   0.0000
    35 H35     -1.5667  -9.8146 -12.2011   H         1 RES1   0.0000
    36 H36      0.0380 -10.0017 -12.9442   H         1 RES1   0.0000
    37 N37     -2.7264 -11.9193 -13.4634   N.4       1 RES1   1.0000
    38 H38     -3.2495 -11.6036 -12.6529   H         1 RES1   0.0000
    39 H39     -2.8692 -12.9161 -13.5910   H         1 RES1   0.0000
    40 N40     -0.6191  -4.8314 -11.0335   N.ar      1 RES1   0.0000
    41 C41     -2.7138  -3.1449 -11.3153   C.ar      1 RES1   0.0000
    42 H42     -3.5526  -2.4677 -11.4379   H         1 RES1   0.0000
    43 N43     -0.1558  -3.7890  -9.0443   N.pl3     1 RES1   0.0000
    44 H44     -0.3438  -3.0315  -8.3877   H         1 RES1   0.0000
    45 C45     -2.4926  -4.0918 -12.2950   C.ar      1 RES1   0.0000
    46 H46     -3.1376  -4.1714 -13.1639   H         1 RES1   0.0000
    47 C47     -0.9320  -3.8832 -10.1357   C.ar      1 RES1   0.0000
    48 N48     -1.9515  -3.0164 -10.2217   N.ar      1 RES1   0.0000
    49 C49      0.9822  -4.6660  -8.7696   C.3       1 RES1   0.0000
    50 H50      1.4209  -4.9848  -9.7279   H         1 RES1   0.0000
    51 C51      0.5839  -5.9014  -7.9864   C.ar      1 RES1   0.0000
    52 C52      2.0207  -3.8510  -8.0077   C.3       1 RES1   0.0000
    53 H53      2.9071  -4.4482  -7.8044   H         1 RES1   0.0000
    54 H54      2.3248  -2.9777  -8.5809   H         1 RES1   0.0000
    55 H55      1.6180  -3.5084  -7.0568   H         1 RES1   0.0000
    56 C56     -0.1384  -8.1673  -6.5357   C.ar      1 RES1   0.0000
    57 H57     -0.4204  -9.0494  -5.9704   H         1 RES1   0.0000
    58 C58      1.1387  -6.1533  -6.7398   C.ar      1 RES1   0.0000
    59 H59      1.8628  -5.4596  -6.3256   H         1 RES1   0.0000
    60 C60     -0.3378  -6.8060  -8.4954   C.ar      1 RES1   0.0000
    61 H61     -0.7837  -6.6311  -9.4689   H         1 RES1   0.0000
    62 C62     -0.6962  -7.9316  -7.7730   C.ar      1 RES1   0.0000
    63 H63     -1.4184  -8.6296  -8.1831   H         1 RES1   0.0000
    64 C64      0.7786  -7.2789  -6.0186   C.ar      1 RES1   0.0000
    65 H65      1.2198  -7.4613  -5.0444   H         1 RES1   0.0000
@<TRIPOS>BOND
     1     1     5   ar
     2     1     6   ar
     3     1     2    1
     4     3     8   ar
     5     3     9   ar
     6     3     4    1
     7     5     9   ar
     8     5    11    1
     9     6     8   ar
    10     6     7    1
    11     8    12    1
    12     9    10    1
    13    11    20    2
    14    11    23    1
    15    13    14    1
    16    13    23   am
    17    13    24    1
    18    14    31    1
    19    14    34    1
    20    14    15    1
    21    16    24    1
    22    16    17    1
    23    16    18    1
    24    16    19    1
    25    20    21    1
    26    20    24    1
    27    21    40   ar
    28    21    45   ar
    29    22    23    2
    30    25    34    1
    31    25    37    1
    32    25    26    1
    33    25    27    1
    34    28    31    1
    35    28    37    1
    36    28    29    1
    37    28    30    1
    38    31    32    1
    39    31    33    1
    40    34    35    1
    41    34    36    1
    42    37    38    1
    43    37    39    1
    44    40    47   ar
    45    41    45   ar
    46    41    48   ar
    47    41    42    1
    48    43    47    1
    49    43    49    1
    50    43    44    1
    51    45    46    1
    52    47    48   ar
    53    49    51    1
    54    49    52    1
    55    49    50    1
    56    51    58   ar
    57    51    60   ar
    58    52    53    1
    59    52    54    1
    60    52    55    1
    61    56    62   ar
    62    56    64   ar
    63    56    57    1
    64    58    64   ar
    65    58    59    1
    66    60    62   ar
    67    60    61    1
    68    62    63    1
    69    64    65    1
@<TRIPOS>SUBSTRUCTURE
     1 RES1        1 GROUP             0 ****  ****    0  
@<TRIPOS>MOLECULE
LIGAND_00301
    65    69     1     0     0
SMALL
USER_CHARGES
****
Generated from the CSD

@<TRIPOS>ATOM
     1 C1      -0.5926  -3.7993 -12.2076   C.ar      1 RES1   0.0000
     2 H2       0.3665  -4.2709 -12.0222   H         1 RES1   0.0000
     3 C3      -3.0132  -2.5595 -12.6926   C.ar      1 RES1   0.0000
     4 H4      -3.9585  -2.0628 -12.8847   H         1 RES1   0.0000
     5 C5      -1.5353  -4.4526 -12.9958   C.ar      1 RES1   0.0000
     6 C6      -0.8507  -2.5558 -11.6585   C.ar      1 RES1   0.0000
     7 H7      -0.1132  -2.0587 -11.0373   H         1 RES1   0.0000
     8 C8      -2.0562  -1.9673 -11.9189   C.ar      1 RES1   0.0000
     9 C9      -2.7479  -3.8083 -13.2242   C.ar      1 RES1   0.0000
    10 H10     -3.5070  -4.2922 -13.8281   H         1 RES1   0.0000
    11 C11     -1.2686  -5.7981 -13.6005   C.2       1 RES1   0.0000
    12 F12     -2.3148  -0.7419 -11.3866   F         1 RES1   0.0000
    13 N13     -1.2895  -7.9275 -14.2392   N.am      1 RES1   0.0000
    14 C14     -1.6297  -9.3690 -14.4901   C.3       1 RES1   0.0000
    15 H15     -1.2894  -9.6269 -15.4919   H         1 RES1   0.0000
    16 C16      0.5337  -7.8572 -15.9852   C.3       1 RES1   0.0000
    17 H17      1.6009  -7.6977 -15.8451   H         1 RES1   0.0000
    18 H18      0.3579  -8.9287 -16.0546   H         1 RES1   0.0000
    19 H19      0.2438  -7.4038 -16.9307   H         1 RES1   0.0000
    20 C20     -0.2418  -6.0006 -14.4889   C.2       1 RES1   0.0000
    21 C21      0.7886  -5.0317 -14.9429   C.ar      1 RES1   0.0000
    22 O22     -2.9102  -7.3672 -12.7722   O.2       1 RES1   0.0000
    23 C23     -1.9375  -7.0479 -13.4432   C.2       1 RES1   0.0000
    24 N24     -0.2271  -7.2762 -14.8784   N.pl3     1 RES1   0.0000
    25 C25     -1.2168 -11.7376 -13.7512   C.3       1 RES1   0.0000
    26 H26     -0.7218 -12.3513 -13.0000   H         1 RES1   0.0000
    27 H27     -0.8590 -12.0166 -14.7412   H         1 RES1   0.0000
    28 C28     -3.4406 -11.1024 -14.6474   C.3       1 RES1   0.0000
    29 H29     -3.1493 -11.3751 -15.6607   H         1 RES1   0.0000
    30 H30     -4.5095 -11.2675 -14.5201   H         1 RES1   0.0000
    31 C31     -3.1321  -9.6305 -14.4183   C.3       1 RES1   0.0000
    32 H32     -3.6336  -9.0383 -15.1824   H         1 RES1   0.0000
    33 H33     -3.4977  -9.3388 -13.4349   H         1 RES1   0.0000
    34 C34     -0.9029 -10.2739 -13.4946   C.3       1 RES1   0.0000
    35 H35     -1.2171 -10.0151 -12.4845   H         1 RES1   0.0000
    36 H36      0.1706 -10.1187 -13.5917   H         1 RES1   0.0000
    37 N37     -2.6942 -11.9557 -13.6767   N.4       1 RES1   1.0000
    38 H38     -3.0100 -11.7351 -12.7376   H         1 RES1   0.0000
    39 H39     -2.8912 -12.9304 -13.8797   H         1 RES1   0.0000
    40 N40      2.0244  -5.5159 -15.1432   N.ar      1 RES1   0.0000
    41 C41      1.5502  -2.8852 -15.5503   C.ar      1 RES1   0.0000
    42 H42      1.3513  -1.8317 -15.7175   H         1 RES1   0.0000
    43 N43      4.2116  -5.1230 -15.7089   N.pl3     1 RES1   0.0000
    44 H44      4.3796  -6.1071 -15.5000   H         1 RES1   0.0000
    45 C45      0.5049  -3.6885 -15.1413   C.ar      1 RES1   0.0000
    46 H46     -0.4903  -3.2874 -14.9805   H         1 RES1   0.0000
    47 C47      2.9703  -4.6443 -15.5287   C.ar      1 RES1   0.0000
    48 N48      2.7962  -3.3334 -15.7511   N.ar      1 RES1   0.0000
    49 C49      5.3522  -4.3075 -16.1255   C.3       1 RES1   0.0000
    50 H50      5.2299  -3.2938 -15.7134   H         1 RES1   0.0000
    51 C51      5.4688  -4.2045 -17.6336   C.ar      1 RES1   0.0000
    52 C52      6.6081  -4.9276 -15.5245   C.3       1 RES1   0.0000
    53 H53      7.4880  -4.3396 -15.7770   H         1 RES1   0.0000
    54 H54      6.5344  -4.9785 -14.4402   H         1 RES1   0.0000
    55 H55      6.7562  -5.9374 -15.9016   H         1 RES1   0.0000
    56 C56      5.6766  -4.0294 -20.4060   C.ar      1 RES1   0.0000
    57 H57      5.7570  -3.9608 -21.4858   H         1 RES1   0.0000
    58 C58      5.0285  -5.2399 -18.4455   C.ar      1 RES1   0.0000
    59 H59      4.5986  -6.1284 -17.9950   H         1 RES1   0.0000
    60 C60      6.0177  -3.0800 -18.2345   C.ar      1 RES1   0.0000
    61 H61      6.3705  -2.2584 -17.6200   H         1 RES1   0.0000
    62 C62      6.1201  -2.9943 -19.6127   C.ar      1 RES1   0.0000
    63 H63      6.5507  -2.1089 -20.0685   H         1 RES1   0.0000
    64 C64      5.1309  -5.1520 -19.8234   C.ar      1 RES1   0.0000
    65 H65      4.7806  -5.9691 -20.4452   H         1 RES1   0.0000
@<TRIPOS>BOND
     1     1     5   ar
     2     1     6   ar
     3     1     2    1
     4     3     8   ar
     5     3     9   ar
     6     3     4    1
     7     5     9   ar
     8     5    11    1
     9     6     8   ar
    10     6     7    1
    11     8    12    1
    12     9    10    1
    13    11    20    2
    14    11    23    1
    15    13    14    1
    16    13    23   am
    17    13    24    1
    18    14    31    1
    19    14    34    1
    20    14    15    1
    21    16    24    1
    22    16    17    1
    23    16    18    1
    24    16    19    1
    25    20    21    1
    26    20    24    1
    27    21    40   ar
    28    21    45   ar
    29    22    23    2
    30    25    34    1
    31    25    37    1
    32    25    26    1
    33    25    27    1
    34    28    31    1
    35    28    37    1
    36    28    29    1
    37    28    30    1
    38    31    32    1
    39    31    33    1
    40    34    35    1
    41    34    36    1
    42    37    38    1
    43    37    39    1
    44    40    47   ar
    45    41    45   ar
    46    41    48   ar
    47    41    42    1
    48    43    47    1
    49    43    49    1
    50    43    44    1
    51    45    46    1
    52    47    48   ar
    53    49    51    1
    54    49    52    1
    55    49    50    1
    56    51    58   ar
    57    51    60   ar
    58    52    53    1
    59    52    54    1
    60    52    55    1
    61    56    62   ar
    62    56    64   ar
    63    56    57    1
    64    58    64   ar
    65    58    59    1
    66    60    62   ar
    67    60    61    1
    68    62    63    1
    69    64    65    1
@<TRIPOS>SUBSTRUCTURE
     1 RES1        1 GROUP             0 ****  ****    0  
@<TRIPOS>MOLECULE
LIGAND_00302
    65    69     1     0     0
SMALL
USER_CHARGES
****
Generated from the CSD

@<TRIPOS>ATOM
     1 C1      -0.6994  -4.2982 -11.5265   C.ar      1 RES1   0.0000
     2 H2      -0.1323  -5.0965 -11.0599   H         1 RES1   0.0000
     3 C3      -2.1079  -2.2360 -12.7076   C.ar      1 RES1   0.0000
     4 H4      -2.6530  -1.4188 -13.1683   H         1 RES1   0.0000
     5 C5      -1.2881  -4.5128 -12.7691   C.ar      1 RES1   0.0000
     6 C6      -0.8173  -3.0836 -10.8742   C.ar      1 RES1   0.0000
     7 H7      -0.3629  -2.9290  -9.9013   H         1 RES1   0.0000
     8 C8      -1.5180  -2.0824 -11.4854   C.ar      1 RES1   0.0000
     9 C9      -1.9941  -3.4590 -13.3427   C.ar      1 RES1   0.0000
    10 H10     -2.4708  -3.5947 -14.3068   H         1 RES1   0.0000
    11 C11     -1.1659  -5.8217 -13.4895   C.2       1 RES1   0.0000
    12 F12     -1.6334  -0.8834 -10.8522   F         1 RES1   0.0000
    13 N13     -1.2406  -7.9410 -14.1570   N.am      1 RES1   0.0000
    14 C14     -1.5106  -9.4109 -14.3092   C.3       1 RES1   0.0000
    15 H15     -1.1038  -9.7317 -15.2671   H         1 RES1   0.0000
    16 C16     -0.3252  -7.6743 -16.4955   C.3       1 RES1   0.0000
    17 H17      0.2025  -6.9228 -17.0792   H         1 RES1   0.0000
    18 H18      0.2938  -8.5681 -16.4557   H         1 RES1   0.0000
    19 H19     -1.2474  -7.9231 -17.0165   H         1 RES1   0.0000
    20 C20     -0.5870  -5.9122 -14.7311   C.2       1 RES1   0.0000
    21 C21      0.0604  -4.8376 -15.5265   C.ar      1 RES1   0.0000
    22 O22     -2.1510  -7.5590 -12.1278   O.2       1 RES1   0.0000
    23 C23     -1.5821  -7.1365 -13.1259   C.2       1 RES1   0.0000
    24 N24     -0.6101  -7.1788 -15.1485   N.pl3     1 RES1   0.0000
    25 C25     -1.0506 -11.6947 -13.3607   C.3       1 RES1   0.0000
    26 H26     -0.5764 -12.2260 -12.5368   H         1 RES1   0.0000
    27 H27     -0.6262 -12.0348 -14.3041   H         1 RES1   0.0000
    28 C28     -3.2420 -11.2269 -14.4242   C.3       1 RES1   0.0000
    29 H29     -2.8828 -11.5654 -15.3950   H         1 RES1   0.0000
    30 H30     -4.3093 -11.4269 -14.3421   H         1 RES1   0.0000
    31 C31     -3.0035  -9.7298 -14.2980   C.3       1 RES1   0.0000
    32 H32     -3.4826  -9.2212 -15.1333   H         1 RES1   0.0000
    33 H33     -3.4358  -9.3779 -13.3625   H         1 RES1   0.0000
    34 C34     -0.8080 -10.2034 -13.2061   C.3       1 RES1   0.0000
    35 H35     -1.1894  -9.8800 -12.2387   H         1 RES1   0.0000
    36 H36      0.2626 -10.0106 -13.2572   H         1 RES1   0.0000
    37 N37     -2.5204 -11.9690 -13.3489   N.4       1 RES1   1.0000
    38 H38     -2.8978 -11.6893 -12.4492   H         1 RES1   0.0000
    39 H39     -2.6681 -12.9642 -13.4832   H         1 RES1   0.0000
    40 N40     -0.7315  -4.1442 -16.3595   N.ar      1 RES1   0.0000
    41 C41      1.9032  -3.5489 -16.2337   C.ar      1 RES1   0.0000
    42 H42      2.9602  -3.3115 -16.1736   H         1 RES1   0.0000
    43 N43     -0.9391  -2.5074 -17.9520   N.pl3     1 RES1   0.0000
    44 H44     -1.9174  -2.7864 -18.0252   H         1 RES1   0.0000
    45 C45      1.4167  -4.5622 -15.4325   C.ar      1 RES1   0.0000
    46 H46      2.0651  -5.1182 -14.7635   H         1 RES1   0.0000
    47 C47     -0.1524  -3.1875 -17.1028   C.ar      1 RES1   0.0000
    48 N48      1.1435  -2.8434 -17.0815   N.ar      1 RES1   0.0000
    49 C49     -0.4668  -1.4329 -18.8249   C.3       1 RES1   0.0000
    50 H50      0.4152  -0.9644 -18.3615   H         1 RES1   0.0000
    51 C51     -1.5193  -0.3649 -19.0483   C.ar      1 RES1   0.0000
    52 C52     -0.0435  -2.0633 -20.1465   C.3       1 RES1   0.0000
    53 H53      0.3488  -1.3095 -20.8259   H         1 RES1   0.0000
    54 H54      0.7298  -2.8122 -19.9886   H         1 RES1   0.0000
    55 H55     -0.8897  -2.5471 -20.6299   H         1 RES1   0.0000
    56 C56     -3.4645   1.5868 -19.4577   C.ar      1 RES1   0.0000
    57 H57     -4.2220   2.3471 -19.6165   H         1 RES1   0.0000
    58 C58     -2.8646  -0.7014 -19.0927   C.ar      1 RES1   0.0000
    59 H59     -3.1623  -1.7372 -18.9670   H         1 RES1   0.0000
    60 C60     -1.1645   0.9667 -19.2150   C.ar      1 RES1   0.0000
    61 H61     -0.1186   1.2536 -19.1859   H         1 RES1   0.0000
    62 C62     -2.1325   1.9358 -19.4181   C.ar      1 RES1   0.0000
    63 H63     -1.8405   2.9727 -19.5462   H         1 RES1   0.0000
    64 C64     -3.8312   0.2690 -19.2951   C.ar      1 RES1   0.0000
    65 H65     -4.8793  -0.0094 -19.3257   H         1 RES1   0.0000
@<TRIPOS>BOND
     1     1     5   ar
     2     1     6   ar
     3     1     2    1
     4     3     8   ar
     5     3     9   ar
     6     3     4    1
     7     5     9   ar
     8     5    11    1
     9     6     8   ar
    10     6     7    1
    11     8    12    1
    12     9    10    1
    13    11    20    2
    14    11    23    1
    15    13    14    1
    16    13    23   am
    17    13    24    1
    18    14    31    1
    19    14    34    1
    20    14    15    1
    21    16    24    1
    22    16    17    1
    23    16    18    1
    24    16    19    1
    25    20    21    1
    26    20    24    1
    27    21    40   ar
    28    21    45   ar
    29    22    23    2
    30    25    34    1
    31    25    37    1
    32    25    26    1
    33    25    27    1
    34    28    31    1
    35    28    37    1
    36    28    29    1
    37    28    30    1
    38    31    32    1
    39    31    33    1
    40    34    35    1
    41    34    36    1
    42    37    38    1
    43    37    39    1
    44    40    47   ar
    45    41    45   ar
    46    41    48   ar
    47    41    42    1
    48    43    47    1
    49    43    49    1
    50    43    44    1
    51    45    46    1
    52    47    48   ar
    53    49    51    1
    54    49    52    1
    55    49    50    1
    56    51    58   ar
    57    51    60   ar
    58    52    53    1
    59    52    54    1
    60    52    55    1
    61    56    62   ar
    62    56    64   ar
    63    56    57    1
    64    58    64   ar
    65    58    59    1
    66    60    62   ar
    67    60    61    1
    68    62    63    1
    69    64    65    1
@<TRIPOS>SUBSTRUCTURE
     1 RES1        1 GROUP             0 ****  ****    0  
@<TRIPOS>MOLECULE
LIGAND_00303
    65    69     1     0     0
SMALL
USER_CHARGES
****
Generated from the CSD

@<TRIPOS>ATOM
     1 C1      -0.6994  -4.2982 -11.5265   C.ar      1 RES1   0.0000
     2 H2      -0.1323  -5.0965 -11.0599   H         1 RES1   0.0000
     3 C3      -2.1079  -2.2360 -12.7076   C.ar      1 RES1   0.0000
     4 H4      -2.6530  -1.4188 -13.1683   H         1 RES1   0.0000
     5 C5      -1.2881  -4.5128 -12.7691   C.ar      1 RES1   0.0000
     6 C6      -0.8173  -3.0836 -10.8742   C.ar      1 RES1   0.0000
     7 H7      -0.3629  -2.9290  -9.9013   H         1 RES1   0.0000
     8 C8      -1.5180  -2.0824 -11.4854   C.ar      1 RES1   0.0000
     9 C9      -1.9941  -3.4590 -13.3427   C.ar      1 RES1   0.0000
    10 H10     -2.4708  -3.5947 -14.3068   H         1 RES1   0.0000
    11 C11     -1.1659  -5.8217 -13.4895   C.2       1 RES1   0.0000
    12 F12     -1.6334  -0.8834 -10.8522   F         1 RES1   0.0000
    13 N13     -1.2406  -7.9410 -14.1570   N.am      1 RES1   0.0000
    14 C14     -1.5106  -9.4109 -14.3092   C.3       1 RES1   0.0000
    15 H15     -1.1037  -9.7317 -15.2671   H         1 RES1   0.0000
    16 C16     -0.3252  -7.6743 -16.4955   C.3       1 RES1   0.0000
    17 H17      0.1871  -6.9165 -17.0847   H         1 RES1   0.0000
    18 H18      0.3081  -8.5581 -16.4563   H         1 RES1   0.0000
    19 H19     -1.2463  -7.9393 -17.0103   H         1 RES1   0.0000
    20 C20     -0.5870  -5.9122 -14.7311   C.2       1 RES1   0.0000
    21 C21      0.0604  -4.8376 -15.5265   C.ar      1 RES1   0.0000
    22 O22     -2.1510  -7.5590 -12.1278   O.2       1 RES1   0.0000
    23 C23     -1.5821  -7.1365 -13.1259   C.2       1 RES1   0.0000
    24 N24     -0.6101  -7.1788 -15.1485   N.pl3     1 RES1   0.0000
    25 C25     -1.0506 -11.6947 -13.3607   C.3       1 RES1   0.0000
    26 H26     -0.5764 -12.2260 -12.5368   H         1 RES1   0.0000
    27 H27     -0.6262 -12.0348 -14.3041   H         1 RES1   0.0000
    28 C28     -3.2420 -11.2269 -14.4242   C.3       1 RES1   0.0000
    29 H29     -2.8828 -11.5654 -15.3950   H         1 RES1   0.0000
    30 H30     -4.3093 -11.4269 -14.3421   H         1 RES1   0.0000
    31 C31     -3.0035  -9.7298 -14.2980   C.3       1 RES1   0.0000
    32 H32     -3.4826  -9.2212 -15.1333   H         1 RES1   0.0000
    33 H33     -3.4358  -9.3779 -13.3625   H         1 RES1   0.0000
    34 C34     -0.8080 -10.2034 -13.2061   C.3       1 RES1   0.0000
    35 H35     -1.1894  -9.8800 -12.2387   H         1 RES1   0.0000
    36 H36      0.2625 -10.0106 -13.2571   H         1 RES1   0.0000
    37 N37     -2.5204 -11.9690 -13.3489   N.4       1 RES1   1.0000
    38 H38     -2.8978 -11.6893 -12.4492   H         1 RES1   0.0000
    39 H39     -2.6681 -12.9642 -13.4832   H         1 RES1   0.0000
    40 N40     -0.7315  -4.1442 -16.3595   N.ar      1 RES1   0.0000
    41 C41      1.9032  -3.5489 -16.2337   C.ar      1 RES1   0.0000
    42 H42      2.9602  -3.3115 -16.1736   H         1 RES1   0.0000
    43 N43     -0.9391  -2.5074 -17.9520   N.pl3     1 RES1   0.0000
    44 H44     -0.5208  -1.7450 -18.4850   H         1 RES1   0.0000
    45 C45      1.4167  -4.5622 -15.4325   C.ar      1 RES1   0.0000
    46 H46      2.0651  -5.1182 -14.7635   H         1 RES1   0.0000
    47 C47     -0.1524  -3.1875 -17.1028   C.ar      1 RES1   0.0000
    48 N48      1.1435  -2.8434 -17.0815   N.ar      1 RES1   0.0000
    49 C49     -2.3724  -2.7501 -18.1144   C.3       1 RES1   0.0000
    50 H50     -2.5849  -3.7972 -17.8489   H         1 RES1   0.0000
    51 C51     -2.8422  -2.5076 -19.5354   C.ar      1 RES1   0.0000
    52 C52     -3.1088  -1.8422 -17.1363   C.3       1 RES1   0.0000
    53 H53     -4.1830  -2.0053 -17.1919   H         1 RES1   0.0000
    54 H54     -2.7894  -2.0338 -16.1141   H         1 RES1   0.0000
    55 H55     -2.9133  -0.7959 -17.3617   H         1 RES1   0.0000
    56 C56     -3.6949  -2.0508 -22.1477   C.ar      1 RES1   0.0000
    57 H57     -4.0267  -1.8735 -23.1654   H         1 RES1   0.0000
    58 C58     -2.2522  -1.5214 -20.3128   C.ar      1 RES1   0.0000
    59 H59     -1.4496  -0.9207 -19.8979   H         1 RES1   0.0000
    60 C60     -3.8692  -3.2601 -20.0885   C.ar      1 RES1   0.0000
    61 H61     -4.3470  -4.0357 -19.4992   H         1 RES1   0.0000
    62 C62     -4.2917  -3.0322 -21.3873   C.ar      1 RES1   0.0000
    63 H63     -5.0952  -3.6286 -21.8066   H         1 RES1   0.0000
    64 C64     -2.6755  -1.2954 -21.6114   C.ar      1 RES1   0.0000
    65 H65     -2.2032  -0.5218 -22.2076   H         1 RES1   0.0000
@<TRIPOS>BOND
     1     1     5   ar
     2     1     6   ar
     3     1     2    1
     4     3     8   ar
     5     3     9   ar
     6     3     4    1
     7     5     9   ar
     8     5    11    1
     9     6     8   ar
    10     6     7    1
    11     8    12    1
    12     9    10    1
    13    11    20    2
    14    11    23    1
    15    13    14    1
    16    13    23   am
    17    13    24    1
    18    14    31    1
    19    14    34    1
    20    14    15    1
    21    16    24    1
    22    16    17    1
    23    16    18    1
    24    16    19    1
    25    20    21    1
    26    20    24    1
    27    21    40   ar
    28    21    45   ar
    29    22    23    2
    30    25    34    1
    31    25    37    1
    32    25    26    1
    33    25    27    1
    34    28    31    1
    35    28    37    1
    36    28    29    1
    37    28    30    1
    38    31    32    1
    39    31    33    1
    40    34    35    1
    41    34    36    1
    42    37    38    1
    43    37    39    1
    44    40    47   ar
    45    41    45   ar
    46    41    48   ar
    47    41    42    1
    48    43    47    1
    49    43    49    1
    50    43    44    1
    51    45    46    1
    52    47    48   ar
    53    49    51    1
    54    49    52    1
    55    49    50    1
    56    51    58   ar
    57    51    60   ar
    58    52    53    1
    59    52    54    1
    60    52    55    1
    61    56    62   ar
    62    56    64   ar
    63    56    57    1
    64    58    64   ar
    65    58    59    1
    66    60    62   ar
    67    60    61    1
    68    62    63    1
    69    64    65    1
@<TRIPOS>SUBSTRUCTURE
     1 RES1        1 GROUP             0 ****  ****    0  
@<TRIPOS>MOLECULE
LIGAND_00304
    65    69     1     0     0
SMALL
USER_CHARGES
****
Generated from the CSD

@<TRIPOS>ATOM
     1 C1      -0.1734  -3.7512 -12.4311   C.ar      1 RES1   0.0000
     2 H2       0.8163  -4.1080 -12.6950   H         1 RES1   0.0000
     3 C3      -2.6840  -2.8012 -11.7784   C.ar      1 RES1   0.0000
     4 H4      -3.6669  -2.4178 -11.5253   H         1 RES1   0.0000
     5 C5      -1.2881  -4.5128 -12.7691   C.ar      1 RES1   0.0000
     6 C6      -0.3010  -2.5429 -11.7691   C.ar      1 RES1   0.0000
     7 H7       0.5745  -1.9608 -11.5013   H         1 RES1   0.0000
     8 C8      -1.5563  -2.0986 -11.4624   C.ar      1 RES1   0.0000
     9 C9      -2.5420  -4.0138 -12.4278   C.ar      1 RES1   0.0000
    10 H10     -3.4308  -4.5851 -12.6702   H         1 RES1   0.0000
    11 C11     -1.1659  -5.8217 -13.4895   C.2       1 RES1   0.0000
    12 F12     -1.6896  -0.9084 -10.8162   F         1 RES1   0.0000
    13 N13     -1.2406  -7.9410 -14.1570   N.am      1 RES1   0.0000
    14 C14     -1.5106  -9.4109 -14.3092   C.3       1 RES1   0.0000
    15 H15     -1.1037  -9.7317 -15.2671   H         1 RES1   0.0000
    16 C16     -0.3252  -7.6743 -16.4955   C.3       1 RES1   0.0000
    17 H17      0.1871  -6.9165 -17.0847   H         1 RES1   0.0000
    18 H18      0.3081  -8.5581 -16.4563   H         1 RES1   0.0000
    19 H19     -1.2463  -7.9393 -17.0103   H         1 RES1   0.0000
    20 C20     -0.5870  -5.9122 -14.7311   C.2       1 RES1   0.0000
    21 C21      0.0604  -4.8376 -15.5265   C.ar      1 RES1   0.0000
    22 O22     -2.1510  -7.5590 -12.1278   O.2       1 RES1   0.0000
    23 C23     -1.5821  -7.1365 -13.1259   C.2       1 RES1   0.0000
    24 N24     -0.6101  -7.1788 -15.1485   N.pl3     1 RES1   0.0000
    25 C25     -1.0506 -11.6947 -13.3607   C.3       1 RES1   0.0000
    26 H26     -0.5764 -12.2260 -12.5368   H         1 RES1   0.0000
    27 H27     -0.6262 -12.0348 -14.3041   H         1 RES1   0.0000
    28 C28     -3.2420 -11.2269 -14.4242   C.3       1 RES1   0.0000
    29 H29     -2.8828 -11.5654 -15.3950   H         1 RES1   0.0000
    30 H30     -4.3093 -11.4269 -14.3421   H         1 RES1   0.0000
    31 C31     -3.0035  -9.7298 -14.2980   C.3       1 RES1   0.0000
    32 H32     -3.4826  -9.2212 -15.1333   H         1 RES1   0.0000
    33 H33     -3.4358  -9.3779 -13.3625   H         1 RES1   0.0000
    34 C34     -0.8080 -10.2034 -13.2061   C.3       1 RES1   0.0000
    35 H35     -1.1894  -9.8800 -12.2387   H         1 RES1   0.0000
    36 H36      0.2625 -10.0106 -13.2571   H         1 RES1   0.0000
    37 N37     -2.5204 -11.9690 -13.3489   N.4       1 RES1   1.0000
    38 H38     -2.8978 -11.6893 -12.4492   H         1 RES1   0.0000
    39 H39     -2.6681 -12.9642 -13.4832   H         1 RES1   0.0000
    40 N40     -0.7315  -4.1442 -16.3595   N.ar      1 RES1   0.0000
    41 C41      1.9032  -3.5489 -16.2337   C.ar      1 RES1   0.0000
    42 H42      2.9602  -3.3115 -16.1736   H         1 RES1   0.0000
    43 N43     -0.9391  -2.5074 -17.9520   N.pl3     1 RES1   0.0000
    44 H44     -0.5208  -1.7450 -18.4850   H         1 RES1   0.0000
    45 C45      1.4167  -4.5622 -15.4325   C.ar      1 RES1   0.0000
    46 H46      2.0651  -5.1182 -14.7635   H         1 RES1   0.0000
    47 C47     -0.1524  -3.1875 -17.1028   C.ar      1 RES1   0.0000
    48 N48      1.1435  -2.8434 -17.0815   N.ar      1 RES1   0.0000
    49 C49     -2.3724  -2.7501 -18.1144   C.3       1 RES1   0.0000
    50 H50     -2.5849  -3.7972 -17.8489   H         1 RES1   0.0000
    51 C51     -2.8422  -2.5076 -19.5354   C.ar      1 RES1   0.0000
    52 C52     -3.1088  -1.8422 -17.1363   C.3       1 RES1   0.0000
    53 H53     -4.1830  -2.0053 -17.1919   H         1 RES1   0.0000
    54 H54     -2.7894  -2.0338 -16.1141   H         1 RES1   0.0000
    55 H55     -2.9133  -0.7959 -17.3617   H         1 RES1   0.0000
    56 C56     -3.6949  -2.0508 -22.1477   C.ar      1 RES1   0.0000
    57 H57     -4.0267  -1.8735 -23.1654   H         1 RES1   0.0000
    58 C58     -2.2522  -1.5214 -20.3128   C.ar      1 RES1   0.0000
    59 H59     -1.4496  -0.9207 -19.8979   H         1 RES1   0.0000
    60 C60     -3.8692  -3.2601 -20.0885   C.ar      1 RES1   0.0000
    61 H61     -4.3470  -4.0357 -19.4992   H         1 RES1   0.0000
    62 C62     -4.2917  -3.0322 -21.3873   C.ar      1 RES1   0.0000
    63 H63     -5.0952  -3.6286 -21.8066   H         1 RES1   0.0000
    64 C64     -2.6755  -1.2954 -21.6114   C.ar      1 RES1   0.0000
    65 H65     -2.2032  -0.5218 -22.2076   H         1 RES1   0.0000
@<TRIPOS>BOND
     1     1     5   ar
     2     1     6   ar
     3     1     2    1
     4     3     8   ar
     5     3     9   ar
     6     3     4    1
     7     5     9   ar
     8     5    11    1
     9     6     8   ar
    10     6     7    1
    11     8    12    1
    12     9    10    1
    13    11    20    2
    14    11    23    1
    15    13    14    1
    16    13    23   am
    17    13    24    1
    18    14    31    1
    19    14    34    1
    20    14    15    1
    21    16    24    1
    22    16    17    1
    23    16    18    1
    24    16    19    1
    25    20    21    1
    26    20    24    1
    27    21    40   ar
    28    21    45   ar
    29    22    23    2
    30    25    34    1
    31    25    37    1
    32    25    26    1
    33    25    27    1
    34    28    31    1
    35    28    37    1
    36    28    29    1
    37    28    30    1
    38    31    32    1
    39    31    33    1
    40    34    35    1
    41    34    36    1
    42    37    38    1
    43    37    39    1
    44    40    47   ar
    45    41    45   ar
    46    41    48   ar
    47    41    42    1
    48    43    47    1
    49    43    49    1
    50    43    44    1
    51    45    46    1
    52    47    48   ar
    53    49    51    1
    54    49    52    1
    55    49    50    1
    56    51    58   ar
    57    51    60   ar
    58    52    53    1
    59    52    54    1
    60    52    55    1
    61    56    62   ar
    62    56    64   ar
    63    56    57    1
    64    58    64   ar
    65    58    59    1
    66    60    62   ar
    67    60    61    1
    68    62    63    1
    69    64    65    1
@<TRIPOS>SUBSTRUCTURE
     1 RES1        1 GROUP             0 ****  ****    0  
@<TRIPOS>MOLECULE
LIGAND_00305
    65    69     1     0     0
SMALL
USER_CHARGES
****
Generated from the CSD

@<TRIPOS>ATOM
     1 C1      -0.1734  -3.7512 -12.4311   C.ar      1 RES1   0.0000
     2 H2       0.8163  -4.1080 -12.6950   H         1 RES1   0.0000
     3 C3      -2.6840  -2.8012 -11.7784   C.ar      1 RES1   0.0000
     4 H4      -3.6669  -2.4178 -11.5253   H         1 RES1   0.0000
     5 C5      -1.2881  -4.5128 -12.7691   C.ar      1 RES1   0.0000
     6 C6      -0.3010  -2.5429 -11.7691   C.ar      1 RES1   0.0000
     7 H7       0.5745  -1.9608 -11.5013   H         1 RES1   0.0000
     8 C8      -1.5563  -2.0986 -11.4624   C.ar      1 RES1   0.0000
     9 C9      -2.5420  -4.0138 -12.4278   C.ar      1 RES1   0.0000
    10 H10     -3.4308  -4.5851 -12.6702   H         1 RES1   0.0000
    11 C11     -1.1659  -5.8217 -13.4895   C.2       1 RES1   0.0000
    12 F12     -1.6896  -0.9084 -10.8162   F         1 RES1   0.0000
    13 N13     -1.2406  -7.9410 -14.1570   N.am      1 RES1   0.0000
    14 C14     -1.5106  -9.4109 -14.3092   C.3       1 RES1   0.0000
    15 H15     -1.1038  -9.7317 -15.2671   H         1 RES1   0.0000
    16 C16     -0.3252  -7.6743 -16.4955   C.3       1 RES1   0.0000
    17 H17      0.2025  -6.9228 -17.0792   H         1 RES1   0.0000
    18 H18      0.2938  -8.5681 -16.4557   H         1 RES1   0.0000
    19 H19     -1.2474  -7.9231 -17.0165   H         1 RES1   0.0000
    20 C20     -0.5870  -5.9122 -14.7311   C.2       1 RES1   0.0000
    21 C21      0.0604  -4.8376 -15.5265   C.ar      1 RES1   0.0000
    22 O22     -2.1510  -7.5590 -12.1278   O.2       1 RES1   0.0000
    23 C23     -1.5821  -7.1365 -13.1259   C.2       1 RES1   0.0000
    24 N24     -0.6101  -7.1788 -15.1485   N.pl3     1 RES1   0.0000
    25 C25     -1.0506 -11.6947 -13.3607   C.3       1 RES1   0.0000
    26 H26     -0.5764 -12.2260 -12.5368   H         1 RES1   0.0000
    27 H27     -0.6262 -12.0348 -14.3041   H         1 RES1   0.0000
    28 C28     -3.2420 -11.2269 -14.4242   C.3       1 RES1   0.0000
    29 H29     -2.8828 -11.5654 -15.3950   H         1 RES1   0.0000
    30 H30     -4.3093 -11.4269 -14.3421   H         1 RES1   0.0000
    31 C31     -3.0035  -9.7298 -14.2980   C.3       1 RES1   0.0000
    32 H32     -3.4826  -9.2212 -15.1333   H         1 RES1   0.0000
    33 H33     -3.4358  -9.3779 -13.3625   H         1 RES1   0.0000
    34 C34     -0.8080 -10.2034 -13.2061   C.3       1 RES1   0.0000
    35 H35     -1.1894  -9.8800 -12.2387   H         1 RES1   0.0000
    36 H36      0.2626 -10.0106 -13.2572   H         1 RES1   0.0000
    37 N37     -2.5204 -11.9690 -13.3489   N.4       1 RES1   1.0000
    38 H38     -2.8978 -11.6893 -12.4492   H         1 RES1   0.0000
    39 H39     -2.6681 -12.9642 -13.4832   H         1 RES1   0.0000
    40 N40      1.3774  -4.6591 -15.3388   N.ar      1 RES1   0.0000
    41 C41      0.0602  -3.0675 -17.0834   C.ar      1 RES1   0.0000
    42 H42     -0.4737  -2.4365 -17.7862   H         1 RES1   0.0000
    43 N43      3.2815  -3.4798 -15.8307   N.pl3     1 RES1   0.0000
    44 H44      3.7465  -4.0530 -15.1267   H         1 RES1   0.0000
    45 C45     -0.6510  -4.0422 -16.4129   C.ar      1 RES1   0.0000
    46 H46     -1.7159  -4.1777 -16.5702   H         1 RES1   0.0000
    47 C47      1.9685  -3.6735 -16.0332   C.ar      1 RES1   0.0000
    48 N48      1.3719  -2.8567 -16.9137   N.ar      1 RES1   0.0000
    49 C49      4.0735  -2.4556 -16.5113   C.3       1 RES1   0.0000
    50 H50      3.6057  -2.2366 -17.4836   H         1 RES1   0.0000
    51 C51      5.5039  -2.8964 -16.7522   C.ar      1 RES1   0.0000
    52 C52      4.0303  -1.1942 -15.6567   C.3       1 RES1   0.0000
    53 H53      4.5796  -0.3853 -16.1341   H         1 RES1   0.0000
    54 H54      3.0049  -0.8639 -15.5048   H         1 RES1   0.0000
    55 H55      4.4757  -1.3758 -14.6808   H         1 RES1   0.0000
    56 C56      8.1320  -3.7146 -17.1817   C.ar      1 RES1   0.0000
    57 H57      9.1552  -4.0338 -17.3495   H         1 RES1   0.0000
    58 C58      6.1468  -3.7259 -15.8446   C.ar      1 RES1   0.0000
    59 H59      5.6196  -4.0594 -14.9569   H         1 RES1   0.0000
    60 C60      6.2014  -2.4813 -17.8783   C.ar      1 RES1   0.0000
    61 H61      5.7201  -1.8310 -18.6012   H         1 RES1   0.0000
    62 C62      7.5075  -2.8891 -18.0907   C.ar      1 RES1   0.0000
    63 H63      8.0401  -2.5573 -18.9757   H         1 RES1   0.0000
    64 C64      7.4525  -4.1333 -16.0590   C.ar      1 RES1   0.0000
    65 H65      7.9412  -4.7835 -15.3411   H         1 RES1   0.0000
@<TRIPOS>BOND
     1     1     5   ar
     2     1     6   ar
     3     1     2    1
     4     3     8   ar
     5     3     9   ar
     6     3     4    1
     7     5     9   ar
     8     5    11    1
     9     6     8   ar
    10     6     7    1
    11     8    12    1
    12     9    10    1
    13    11    20    2
    14    11    23    1
    15    13    14    1
    16    13    23   am
    17    13    24    1
    18    14    31    1
    19    14    34    1
    20    14    15    1
    21    16    24    1
    22    16    17    1
    23    16    18    1
    24    16    19    1
    25    20    21    1
    26    20    24    1
    27    21    40   ar
    28    21    45   ar
    29    22    23    2
    30    25    34    1
    31    25    37    1
    32    25    26    1
    33    25    27    1
    34    28    31    1
    35    28    37    1
    36    28    29    1
    37    28    30    1
    38    31    32    1
    39    31    33    1
    40    34    35    1
    41    34    36    1
    42    37    38    1
    43    37    39    1
    44    40    47   ar
    45    41    45   ar
    46    41    48   ar
    47    41    42    1
    48    43    47    1
    49    43    49    1
    50    43    44    1
    51    45    46    1
    52    47    48   ar
    53    49    51    1
    54    49    52    1
    55    49    50    1
    56    51    58   ar
    57    51    60   ar
    58    52    53    1
    59    52    54    1
    60    52    55    1
    61    56    62   ar
    62    56    64   ar
    63    56    57    1
    64    58    64   ar
    65    58    59    1
    66    60    62   ar
    67    60    61    1
    68    62    63    1
    69    64    65    1
@<TRIPOS>SUBSTRUCTURE
     1 RES1        1 GROUP             0 ****  ****    0  
@<TRIPOS>MOLECULE
LIGAND_00306
    65    69     1     0     0
SMALL
USER_CHARGES
****
Generated from the CSD

@<TRIPOS>ATOM
     1 C1      -0.6994  -4.2982 -11.5265   C.ar      1 RES1   0.0000
     2 H2      -0.1323  -5.0965 -11.0599   H         1 RES1   0.0000
     3 C3      -2.1079  -2.2360 -12.7076   C.ar      1 RES1   0.0000
     4 H4      -2.6530  -1.4188 -13.1683   H         1 RES1   0.0000
     5 C5      -1.2881  -4.5128 -12.7691   C.ar      1 RES1   0.0000
     6 C6      -0.8173  -3.0836 -10.8742   C.ar      1 RES1   0.0000
     7 H7      -0.3629  -2.9290  -9.9013   H         1 RES1   0.0000
     8 C8      -1.5180  -2.0824 -11.4854   C.ar      1 RES1   0.0000
     9 C9      -1.9941  -3.4590 -13.3427   C.ar      1 RES1   0.0000
    10 H10     -2.4708  -3.5947 -14.3068   H         1 RES1   0.0000
    11 C11     -1.1659  -5.8217 -13.4895   C.2       1 RES1   0.0000
    12 F12     -1.6334  -0.8834 -10.8522   F         1 RES1   0.0000
    13 N13     -1.2406  -7.9410 -14.1570   N.am      1 RES1   0.0000
    14 C14     -1.5106  -9.4109 -14.3092   C.3       1 RES1   0.0000
    15 H15     -1.1037  -9.7317 -15.2671   H         1 RES1   0.0000
    16 C16     -0.3252  -7.6743 -16.4955   C.3       1 RES1   0.0000
    17 H17      0.1871  -6.9165 -17.0847   H         1 RES1   0.0000
    18 H18      0.3081  -8.5581 -16.4563   H         1 RES1   0.0000
    19 H19     -1.2463  -7.9393 -17.0103   H         1 RES1   0.0000
    20 C20     -0.5870  -5.9122 -14.7311   C.2       1 RES1   0.0000
    21 C21      0.0604  -4.8376 -15.5265   C.ar      1 RES1   0.0000
    22 O22     -2.1510  -7.5590 -12.1278   O.2       1 RES1   0.0000
    23 C23     -1.5821  -7.1365 -13.1259   C.2       1 RES1   0.0000
    24 N24     -0.6101  -7.1788 -15.1485   N.pl3     1 RES1   0.0000
    25 C25     -1.0506 -11.6947 -13.3607   C.3       1 RES1   0.0000
    26 H26     -0.5764 -12.2260 -12.5368   H         1 RES1   0.0000
    27 H27     -0.6262 -12.0348 -14.3041   H         1 RES1   0.0000
    28 C28     -3.2420 -11.2269 -14.4242   C.3       1 RES1   0.0000
    29 H29     -2.8828 -11.5654 -15.3950   H         1 RES1   0.0000
    30 H30     -4.3093 -11.4269 -14.3421   H         1 RES1   0.0000
    31 C31     -3.0035  -9.7298 -14.2980   C.3       1 RES1   0.0000
    32 H32     -3.4826  -9.2212 -15.1333   H         1 RES1   0.0000
    33 H33     -3.4358  -9.3779 -13.3625   H         1 RES1   0.0000
    34 C34     -0.8080 -10.2034 -13.2061   C.3       1 RES1   0.0000
    35 H35     -1.1894  -9.8800 -12.2387   H         1 RES1   0.0000
    36 H36      0.2625 -10.0106 -13.2571   H         1 RES1   0.0000
    37 N37     -2.5204 -11.9690 -13.3489   N.4       1 RES1   1.0000
    38 H38     -2.8978 -11.6893 -12.4492   H         1 RES1   0.0000
    39 H39     -2.6681 -12.9642 -13.4832   H         1 RES1   0.0000
    40 N40      1.3774  -4.6591 -15.3388   N.ar      1 RES1   0.0000
    41 C41      0.0602  -3.0675 -17.0834   C.ar      1 RES1   0.0000
    42 H42     -0.4737  -2.4365 -17.7862   H         1 RES1   0.0000
    43 N43      3.2815  -3.4798 -15.8307   N.pl3     1 RES1   0.0000
    44 H44      3.7516  -2.7676 -16.3893   H         1 RES1   0.0000
    45 C45     -0.6510  -4.0422 -16.4129   C.ar      1 RES1   0.0000
    46 H46     -1.7159  -4.1777 -16.5702   H         1 RES1   0.0000
    47 C47      1.9685  -3.6735 -16.0332   C.ar      1 RES1   0.0000
    48 N48      1.3719  -2.8567 -16.9137   N.ar      1 RES1   0.0000
    49 C49      4.0932  -4.2691 -14.9045   C.3       1 RES1   0.0000
    50 H50      3.4407  -4.6577 -14.1073   H         1 RES1   0.0000
    51 C51      5.2006  -3.4532 -14.2669   C.ar      1 RES1   0.0000
    52 C52      4.6658  -5.4488 -15.6814   C.3       1 RES1   0.0000
    53 H53      5.2550  -6.0908 -15.0299   H         1 RES1   0.0000
    54 H54      3.8698  -6.0484 -16.1180   H         1 RES1   0.0000
    55 H55      5.3094  -5.1021 -16.4871   H         1 RES1   0.0000
    56 C56      7.2367  -1.9456 -13.1086   C.ar      1 RES1   0.0000
    57 H57      8.0291  -1.3581 -12.6570   H         1 RES1   0.0000
    58 C58      5.8194  -2.4329 -14.9748   C.ar      1 RES1   0.0000
    59 H59      5.5067  -2.2201 -15.9917   H         1 RES1   0.0000
    60 C60      5.6211  -3.7073 -12.9687   C.ar      1 RES1   0.0000
    61 H61      5.1533  -4.5014 -12.3962   H         1 RES1   0.0000
    62 C62      6.6330  -2.9569 -12.3941   C.ar      1 RES1   0.0000
    63 H63      6.9509  -3.1664 -11.3782   H         1 RES1   0.0000
    64 C64      6.8305  -1.6831 -14.3984   C.ar      1 RES1   0.0000
    65 H65      7.3036  -0.8872 -14.9639   H         1 RES1   0.0000
@<TRIPOS>BOND
     1     1     5   ar
     2     1     6   ar
     3     1     2    1
     4     3     8   ar
     5     3     9   ar
     6     3     4    1
     7     5     9   ar
     8     5    11    1
     9     6     8   ar
    10     6     7    1
    11     8    12    1
    12     9    10    1
    13    11    20    2
    14    11    23    1
    15    13    14    1
    16    13    23   am
    17    13    24    1
    18    14    31    1
    19    14    34    1
    20    14    15    1
    21    16    24    1
    22    16    17    1
    23    16    18    1
    24    16    19    1
    25    20    21    1
    26    20    24    1
    27    21    40   ar
    28    21    45   ar
    29    22    23    2
    30    25    34    1
    31    25    37    1
    32    25    26    1
    33    25    27    1
    34    28    31    1
    35    28    37    1
    36    28    29    1
    37    28    30    1
    38    31    32    1
    39    31    33    1
    40    34    35    1
    41    34    36    1
    42    37    38    1
    43    37    39    1
    44    40    47   ar
    45    41    45   ar
    46    41    48   ar
    47    41    42    1
    48    43    47    1
    49    43    49    1
    50    43    44    1
    51    45    46    1
    52    47    48   ar
    53    49    51    1
    54    49    52    1
    55    49    50    1
    56    51    58   ar
    57    51    60   ar
    58    52    53    1
    59    52    54    1
    60    52    55    1
    61    56    62   ar
    62    56    64   ar
    63    56    57    1
    64    58    64   ar
    65    58    59    1
    66    60    62   ar
    67    60    61    1
    68    62    63    1
    69    64    65    1
@<TRIPOS>SUBSTRUCTURE
     1 RES1        1 GROUP             0 ****  ****    0  
@<TRIPOS>MOLECULE
LIGAND_00307
    65    69     1     0     0
SMALL
USER_CHARGES
****
Generated from the CSD

@<TRIPOS>ATOM
     1 C1      -0.1734  -3.7512 -12.4311   C.ar      1 RES1   0.0000
     2 H2       0.8163  -4.1080 -12.6950   H         1 RES1   0.0000
     3 C3      -2.6840  -2.8012 -11.7784   C.ar      1 RES1   0.0000
     4 H4      -3.6669  -2.4178 -11.5253   H         1 RES1   0.0000
     5 C5      -1.2881  -4.5128 -12.7691   C.ar      1 RES1   0.0000
     6 C6      -0.3010  -2.5429 -11.7691   C.ar      1 RES1   0.0000
     7 H7       0.5745  -1.9608 -11.5013   H         1 RES1   0.0000
     8 C8      -1.5563  -2.0986 -11.4624   C.ar      1 RES1   0.0000
     9 C9      -2.5420  -4.0138 -12.4278   C.ar      1 RES1   0.0000
    10 H10     -3.4308  -4.5851 -12.6702   H         1 RES1   0.0000
    11 C11     -1.1659  -5.8217 -13.4895   C.2       1 RES1   0.0000
    12 F12     -1.6896  -0.9084 -10.8162   F         1 RES1   0.0000
    13 N13     -1.2406  -7.9410 -14.1570   N.am      1 RES1   0.0000
    14 C14     -1.5106  -9.4109 -14.3092   C.3       1 RES1   0.0000
    15 H15     -1.1037  -9.7317 -15.2671   H         1 RES1   0.0000
    16 C16     -0.3252  -7.6743 -16.4955   C.3       1 RES1   0.0000
    17 H17      0.1871  -6.9165 -17.0847   H         1 RES1   0.0000
    18 H18      0.3081  -8.5581 -16.4563   H         1 RES1   0.0000
    19 H19     -1.2463  -7.9393 -17.0103   H         1 RES1   0.0000
    20 C20     -0.5870  -5.9122 -14.7311   C.2       1 RES1   0.0000
    21 C21      0.0604  -4.8376 -15.5265   C.ar      1 RES1   0.0000
    22 O22     -2.1510  -7.5590 -12.1278   O.2       1 RES1   0.0000
    23 C23     -1.5821  -7.1365 -13.1259   C.2       1 RES1   0.0000
    24 N24     -0.6101  -7.1788 -15.1485   N.pl3     1 RES1   0.0000
    25 C25     -1.0506 -11.6947 -13.3607   C.3       1 RES1   0.0000
    26 H26     -0.5764 -12.2260 -12.5368   H         1 RES1   0.0000
    27 H27     -0.6262 -12.0348 -14.3041   H         1 RES1   0.0000
    28 C28     -3.2420 -11.2269 -14.4242   C.3       1 RES1   0.0000
    29 H29     -2.8828 -11.5654 -15.3950   H         1 RES1   0.0000
    30 H30     -4.3093 -11.4269 -14.3421   H         1 RES1   0.0000
    31 C31     -3.0035  -9.7298 -14.2980   C.3       1 RES1   0.0000
    32 H32     -3.4826  -9.2212 -15.1333   H         1 RES1   0.0000
    33 H33     -3.4358  -9.3779 -13.3625   H         1 RES1   0.0000
    34 C34     -0.8080 -10.2034 -13.2061   C.3       1 RES1   0.0000
    35 H35     -1.1894  -9.8800 -12.2387   H         1 RES1   0.0000
    36 H36      0.2625 -10.0106 -13.2571   H         1 RES1   0.0000
    37 N37     -2.5204 -11.9690 -13.3489   N.4       1 RES1   1.0000
    38 H38     -2.8978 -11.6893 -12.4492   H         1 RES1   0.0000
    39 H39     -2.6681 -12.9642 -13.4832   H         1 RES1   0.0000
    40 N40      1.3774  -4.6591 -15.3388   N.ar      1 RES1   0.0000
    41 C41      0.0602  -3.0675 -17.0834   C.ar      1 RES1   0.0000
    42 H42     -0.4737  -2.4365 -17.7862   H         1 RES1   0.0000
    43 N43      3.2815  -3.4798 -15.8307   N.pl3     1 RES1   0.0000
    44 H44      3.7516  -2.7676 -16.3893   H         1 RES1   0.0000
    45 C45     -0.6510  -4.0422 -16.4129   C.ar      1 RES1   0.0000
    46 H46     -1.7159  -4.1777 -16.5702   H         1 RES1   0.0000
    47 C47      1.9685  -3.6735 -16.0332   C.ar      1 RES1   0.0000
    48 N48      1.3719  -2.8567 -16.9137   N.ar      1 RES1   0.0000
    49 C49      4.0932  -4.2691 -14.9045   C.3       1 RES1   0.0000
    50 H50      3.4407  -4.6577 -14.1073   H         1 RES1   0.0000
    51 C51      5.2006  -3.4532 -14.2669   C.ar      1 RES1   0.0000
    52 C52      4.6658  -5.4488 -15.6814   C.3       1 RES1   0.0000
    53 H53      5.2550  -6.0908 -15.0299   H         1 RES1   0.0000
    54 H54      3.8698  -6.0484 -16.1180   H         1 RES1   0.0000
    55 H55      5.3094  -5.1021 -16.4871   H         1 RES1   0.0000
    56 C56      7.2367  -1.9456 -13.1086   C.ar      1 RES1   0.0000
    57 H57      8.0291  -1.3581 -12.6570   H         1 RES1   0.0000
    58 C58      5.8194  -2.4329 -14.9748   C.ar      1 RES1   0.0000
    59 H59      5.5067  -2.2201 -15.9917   H         1 RES1   0.0000
    60 C60      5.6211  -3.7073 -12.9687   C.ar      1 RES1   0.0000
    61 H61      5.1533  -4.5014 -12.3962   H         1 RES1   0.0000
    62 C62      6.6330  -2.9569 -12.3941   C.ar      1 RES1   0.0000
    63 H63      6.9509  -3.1664 -11.3782   H         1 RES1   0.0000
    64 C64      6.8305  -1.6831 -14.3984   C.ar      1 RES1   0.0000
    65 H65      7.3036  -0.8872 -14.9639   H         1 RES1   0.0000
@<TRIPOS>BOND
     1     1     5   ar
     2     1     6   ar
     3     1     2    1
     4     3     8   ar
     5     3     9   ar
     6     3     4    1
     7     5     9   ar
     8     5    11    1
     9     6     8   ar
    10     6     7    1
    11     8    12    1
    12     9    10    1
    13    11    20    2
    14    11    23    1
    15    13    14    1
    16    13    23   am
    17    13    24    1
    18    14    31    1
    19    14    34    1
    20    14    15    1
    21    16    24    1
    22    16    17    1
    23    16    18    1
    24    16    19    1
    25    20    21    1
    26    20    24    1
    27    21    40   ar
    28    21    45   ar
    29    22    23    2
    30    25    34    1
    31    25    37    1
    32    25    26    1
    33    25    27    1
    34    28    31    1
    35    28    37    1
    36    28    29    1
    37    28    30    1
    38    31    32    1
    39    31    33    1
    40    34    35    1
    41    34    36    1
    42    37    38    1
    43    37    39    1
    44    40    47   ar
    45    41    45   ar
    46    41    48   ar
    47    41    42    1
    48    43    47    1
    49    43    49    1
    50    43    44    1
    51    45    46    1
    52    47    48   ar
    53    49    51    1
    54    49    52    1
    55    49    50    1
    56    51    58   ar
    57    51    60   ar
    58    52    53    1
    59    52    54    1
    60    52    55    1
    61    56    62   ar
    62    56    64   ar
    63    56    57    1
    64    58    64   ar
    65    58    59    1
    66    60    62   ar
    67    60    61    1
    68    62    63    1
    69    64    65    1
@<TRIPOS>SUBSTRUCTURE
     1 RES1        1 GROUP             0 ****  ****    0  
@<TRIPOS>MOLECULE
LIGAND_00308
    65    69     1     0     0
SMALL
USER_CHARGES
****
Generated from the CSD

@<TRIPOS>ATOM
     1 C1      -0.1734  -3.7512 -12.4311   C.ar      1 RES1   0.0000
     2 H2       0.8163  -4.1080 -12.6950   H         1 RES1   0.0000
     3 C3      -2.6840  -2.8012 -11.7784   C.ar      1 RES1   0.0000
     4 H4      -3.6669  -2.4178 -11.5253   H         1 RES1   0.0000
     5 C5      -1.2881  -4.5128 -12.7691   C.ar      1 RES1   0.0000
     6 C6      -0.3010  -2.5429 -11.7691   C.ar      1 RES1   0.0000
     7 H7       0.5745  -1.9608 -11.5013   H         1 RES1   0.0000
     8 C8      -1.5563  -2.0986 -11.4624   C.ar      1 RES1   0.0000
     9 C9      -2.5420  -4.0138 -12.4278   C.ar      1 RES1   0.0000
    10 H10     -3.4308  -4.5851 -12.6702   H         1 RES1   0.0000
    11 C11     -1.1659  -5.8217 -13.4895   C.2       1 RES1   0.0000
    12 F12     -1.6896  -0.9084 -10.8162   F         1 RES1   0.0000
    13 N13     -1.2406  -7.9410 -14.1570   N.am      1 RES1   0.0000
    14 C14     -1.5106  -9.4109 -14.3092   C.3       1 RES1   0.0000
    15 H15     -1.1036  -9.7317 -15.2670   H         1 RES1   0.0000
    16 C16     -0.3252  -7.6743 -16.4955   C.3       1 RES1   0.0000
    17 H17      0.3667  -7.0119 -17.0117   H         1 RES1   0.0000
    18 H18      0.1210  -8.6659 -16.4563   H         1 RES1   0.0000
    19 H19     -1.2386  -7.7361 -17.0834   H         1 RES1   0.0000
    20 C20     -0.5870  -5.9122 -14.7311   C.2       1 RES1   0.0000
    21 C21      0.0604  -4.8376 -15.5265   C.ar      1 RES1   0.0000
    22 O22     -2.1510  -7.5590 -12.1278   O.2       1 RES1   0.0000
    23 C23     -1.5821  -7.1365 -13.1259   C.2       1 RES1   0.0000
    24 N24     -0.6101  -7.1788 -15.1485   N.pl3     1 RES1   0.0000
    25 C25     -1.0508 -11.6947 -13.3606   C.3       1 RES1   0.0000
    26 H26     -0.5767 -12.2260 -12.5366   H         1 RES1   0.0000
    27 H27     -0.6263 -12.0348 -14.3040   H         1 RES1   0.0000
    28 C28     -3.2420 -11.2269 -14.4244   C.3       1 RES1   0.0000
    29 H29     -2.8827 -11.5654 -15.3951   H         1 RES1   0.0000
    30 H30     -4.3093 -11.4269 -14.3424   H         1 RES1   0.0000
    31 C31     -3.0035  -9.7298 -14.2982   C.3       1 RES1   0.0000
    32 H32     -3.4825  -9.2211 -15.1335   H         1 RES1   0.0000
    33 H33     -3.4359  -9.3778 -13.3627   H         1 RES1   0.0000
    34 C34     -0.8082 -10.2033 -13.2060   C.3       1 RES1   0.0000
    35 H35     -1.1896  -9.8799 -12.2386   H         1 RES1   0.0000
    36 H36      0.2624 -10.0106 -13.2569   H         1 RES1   0.0000
    37 N37     -2.5206 -11.9690 -13.3490   N.4       1 RES1   1.0000
    38 H38     -2.8981 -11.6893 -12.4493   H         1 RES1   0.0000
    39 H39     -2.6682 -12.9642 -13.4833   H         1 RES1   0.0000
    40 N40     -0.7315  -4.1442 -16.3595   N.ar      1 RES1   0.0000
    41 C41      1.9032  -3.5489 -16.2337   C.ar      1 RES1   0.0000
    42 H42      2.9602  -3.3115 -16.1736   H         1 RES1   0.0000
    43 N43     -0.9391  -2.5074 -17.9520   N.pl3     1 RES1   0.0000
    44 H44     -1.9177  -2.7857 -18.0245   H         1 RES1   0.0000
    45 C45      1.4167  -4.5622 -15.4325   C.ar      1 RES1   0.0000
    46 H46      2.0651  -5.1182 -14.7635   H         1 RES1   0.0000
    47 C47     -0.1524  -3.1875 -17.1028   C.ar      1 RES1   0.0000
    48 N48      1.1435  -2.8434 -17.0815   N.ar      1 RES1   0.0000
    49 C49     -0.4665  -1.4339 -18.8259   C.3       1 RES1   0.0000
    50 H50      0.4057  -0.9544 -18.3552   H         1 RES1   0.0000
    51 C51     -1.5261  -0.3769 -19.0679   C.ar      1 RES1   0.0000
    52 C52     -0.0221  -2.0682 -20.1387   C.3       1 RES1   0.0000
    53 H53      0.3711  -1.3148 -20.8181   H         1 RES1   0.0000
    54 H54      0.7561  -2.8090 -19.9673   H         1 RES1   0.0000
    55 H55     -0.8582  -2.5626 -20.6289   H         1 RES1   0.0000
    56 C56     -3.4825   1.5543 -19.5188   C.ar      1 RES1   0.0000
    57 H57     -4.2446   2.3065 -19.6936   H         1 RES1   0.0000
    58 C58     -2.7345  -0.7149 -19.6602   C.ar      1 RES1   0.0000
    59 H59     -2.9192  -1.7436 -19.9515   H         1 RES1   0.0000
    60 C60     -1.3133   0.9465 -18.7073   C.ar      1 RES1   0.0000
    61 H61     -0.3754   1.2350 -18.2443   H         1 RES1   0.0000
    62 C62     -2.2868   1.9053 -18.9317   C.ar      1 RES1   0.0000
    63 H63     -2.1067   2.9358 -18.6440   H         1 RES1   0.0000
    64 C64     -3.7070   0.2450 -19.8831   C.ar      1 RES1   0.0000
    65 H65     -4.6476  -0.0350 -20.3455   H         1 RES1   0.0000
@<TRIPOS>BOND
     1     1     5   ar
     2     1     6   ar
     3     1     2    1
     4     3     8   ar
     5     3     9   ar
     6     3     4    1
     7     5     9   ar
     8     5    11    1
     9     6     8   ar
    10     6     7    1
    11     8    12    1
    12     9    10    1
    13    11    20    2
    14    11    23    1
    15    13    14    1
    16    13    23   am
    17    13    24    1
    18    14    31    1
    19    14    34    1
    20    14    15    1
    21    16    24    1
    22    16    17    1
    23    16    18    1
    24    16    19    1
    25    20    21    1
    26    20    24    1
    27    21    40   ar
    28    21    45   ar
    29    22    23    2
    30    25    34    1
    31    25    37    1
    32    25    26    1
    33    25    27    1
    34    28    31    1
    35    28    37    1
    36    28    29    1
    37    28    30    1
    38    31    32    1
    39    31    33    1
    40    34    35    1
    41    34    36    1
    42    37    38    1
    43    37    39    1
    44    40    47   ar
    45    41    45   ar
    46    41    48   ar
    47    41    42    1
    48    43    47    1
    49    43    49    1
    50    43    44    1
    51    45    46    1
    52    47    48   ar
    53    49    51    1
    54    49    52    1
    55    49    50    1
    56    51    58   ar
    57    51    60   ar
    58    52    53    1
    59    52    54    1
    60    52    55    1
    61    56    62   ar
    62    56    64   ar
    63    56    57    1
    64    58    64   ar
    65    58    59    1
    66    60    62   ar
    67    60    61    1
    68    62    63    1
    69    64    65    1
@<TRIPOS>SUBSTRUCTURE
     1 RES1        1 GROUP             0 ****  ****    0  
@<TRIPOS>MOLECULE
LIGAND_00309
    65    69     1     0     0
SMALL
USER_CHARGES
****
Generated from the CSD

@<TRIPOS>ATOM
     1 C1      -0.1313  -3.4938 -14.7980   C.ar      1 RES1   0.0000
     2 H2      -1.2144  -3.4482 -14.7628   H         1 RES1   0.0000
     3 C3       2.6295  -3.5726 -14.8604   C.ar      1 RES1   0.0000
     4 H4       3.7141  -3.5935 -14.8797   H         1 RES1   0.0000
     5 C5       0.5126  -4.6946 -14.5146   C.ar      1 RES1   0.0000
     6 C6       0.5824  -2.3527 -15.1190   C.ar      1 RES1   0.0000
     7 H7       0.0712  -1.4236 -15.3478   H         1 RES1   0.0000
     8 C8       1.9469  -2.4229 -15.1390   C.ar      1 RES1   0.0000
     9 C9       1.9040  -4.7094 -14.5545   C.ar      1 RES1   0.0000
    10 H10      2.4368  -5.6301 -14.3457   H         1 RES1   0.0000
    11 C11     -0.2467  -5.9380 -14.1617   C.2       1 RES1   0.0000
    12 F12      2.6554  -1.3031 -15.4485   F         1 RES1   0.0000
    13 N13     -1.2406  -7.9410 -14.1570   N.am      1 RES1   0.0000
    14 C14     -1.5106  -9.4109 -14.3092   C.3       1 RES1   0.0000
    15 H15     -0.9490  -9.7701 -15.1703   H         1 RES1   0.0000
    16 C16     -2.9634  -7.4981 -12.4712   C.3       1 RES1   0.0000
    17 H17     -3.2161  -6.7696 -11.7036   H         1 RES1   0.0000
    18 H18     -3.7034  -7.4237 -13.2653   H         1 RES1   0.0000
    19 H19     -3.0343  -8.4914 -12.0331   H         1 RES1   0.0000
    20 C20     -1.0688  -6.0097 -13.0848   C.2       1 RES1   0.0000
    21 C21     -1.4087  -4.9383 -12.1137   C.ar      1 RES1   0.0000
    22 O22      0.2750  -7.5989 -15.8623   O.2       1 RES1   0.0000
    23 C23     -0.3156  -7.1911 -14.8707   C.2       1 RES1   0.0000
    24 N24     -1.6169  -7.2574 -12.9912   N.3       1 RES1   0.0000
    25 C25     -1.2721 -11.6680 -13.2251   C.3       1 RES1   0.0000
    26 H26     -0.9608 -12.1784 -12.3148   H         1 RES1   0.0000
    27 H27     -0.6961 -12.0463 -14.0684   H         1 RES1   0.0000
    28 C28     -3.2328 -11.2030 -14.6712   C.3       1 RES1   0.0000
    29 H29     -2.7163 -11.5797 -15.5528   H         1 RES1   0.0000
    30 H30     -4.3020 -11.3838 -14.7719   H         1 RES1   0.0000
    31 C31     -2.9887  -9.7063 -14.5509   C.3       1 RES1   0.0000
    32 H32     -3.3032  -9.2190 -15.4726   H         1 RES1   0.0000
    33 H33     -3.5708  -9.3164 -13.7172   H         1 RES1   0.0000
    34 C34     -1.0290 -10.1762 -13.0760   C.3       1 RES1   0.0000
    35 H35     -1.5671  -9.8145 -12.2011   H         1 RES1   0.0000
    36 H36      0.0378 -10.0017 -12.9440   H         1 RES1   0.0000
    37 N37     -2.7266 -11.9193 -13.4636   N.4       1 RES1   1.0000
    38 H38     -3.2498 -11.6036 -12.6532   H         1 RES1   0.0000
    39 H39     -2.8693 -12.9161 -13.5911   H         1 RES1   0.0000
    40 N40     -2.4741  -4.1759 -12.4060   N.ar      1 RES1   0.0000
    41 C41     -1.0710  -3.6820 -10.1479   C.ar      1 RES1   0.0000
    42 H42     -0.5068  -3.4933  -9.2404   H         1 RES1   0.0000
    43 N43     -3.8280  -2.4106 -11.8503   N.pl3     1 RES1   0.0000
    44 H44     -4.3114  -2.5816 -12.7321   H         1 RES1   0.0000
    45 C45     -0.6634  -4.7173 -10.9648   C.ar      1 RES1   0.0000
    46 H46      0.2002  -5.3270 -10.7208   H         1 RES1   0.0000
    47 C47     -2.7755  -3.1875 -11.5485   C.ar      1 RES1   0.0000
    48 N48     -2.1231  -2.8969 -10.4135   N.ar      1 RES1   0.0000
    49 C49     -4.2862  -1.2938 -11.0241   C.3       1 RES1   0.0000
    50 H50     -3.4126  -0.8357 -10.5350   H         1 RES1   0.0000
    51 C51     -5.2652  -1.7314  -9.9524   C.ar      1 RES1   0.0000
    52 C52     -4.9199  -0.2628 -11.9507   C.3       1 RES1   0.0000
    53 H53     -5.2510   0.6087 -11.3897   H         1 RES1   0.0000
    54 H54     -4.2092   0.0696 -12.7045   H         1 RES1   0.0000
    55 H55     -5.7830  -0.6844 -12.4615   H         1 RES1   0.0000
    56 C56     -7.0653  -2.5207  -7.9783   C.ar      1 RES1   0.0000
    57 H57     -7.7669  -2.8281  -7.2100   H         1 RES1   0.0000
    58 C58     -5.8063  -0.8045  -9.0731   C.ar      1 RES1   0.0000
    59 H59     -5.5244   0.2400  -9.1552   H         1 RES1   0.0000
    60 C60     -5.6396  -3.0619  -9.8244   C.ar      1 RES1   0.0000
    61 H61     -5.2283  -3.8051 -10.4994   H         1 RES1   0.0000
    62 C62     -6.5348  -3.4527  -8.8429   C.ar      1 RES1   0.0000
    63 H63     -6.8188  -4.4961  -8.7550   H         1 RES1   0.0000
    64 C64     -6.7017  -1.1970  -8.0928   C.ar      1 RES1   0.0000
    65 H65     -7.1177  -0.4602  -7.4137   H         1 RES1   0.0000
@<TRIPOS>BOND
     1     1     5   ar
     2     1     6   ar
     3     1     2    1
     4     3     8   ar
     5     3     9   ar
     6     3     4    1
     7     5     9   ar
     8     5    11    1
     9     6     8   ar
    10     6     7    1
    11     8    12    1
    12     9    10    1
    13    11    20    2
    14    11    23    1
    15    13    14    1
    16    13    23   am
    17    13    24    1
    18    14    31    1
    19    14    34    1
    20    14    15    1
    21    16    24    1
    22    16    17    1
    23    16    18    1
    24    16    19    1
    25    20    21    1
    26    20    24    1
    27    21    40   ar
    28    21    45   ar
    29    22    23    2
    30    25    34    1
    31    25    37    1
    32    25    26    1
    33    25    27    1
    34    28    31    1
    35    28    37    1
    36    28    29    1
    37    28    30    1
    38    31    32    1
    39    31    33    1
    40    34    35    1
    41    34    36    1
    42    37    38    1
    43    37    39    1
    44    40    47   ar
    45    41    45   ar
    46    41    48   ar
    47    41    42    1
    48    43    47    1
    49    43    49    1
    50    43    44    1
    51    45    46    1
    52    47    48   ar
    53    49    51    1
    54    49    52    1
    55    49    50    1
    56    51    58   ar
    57    51    60   ar
    58    52    53    1
    59    52    54    1
    60    52    55    1
    61    56    62   ar
    62    56    64   ar
    63    56    57    1
    64    58    64   ar
    65    58    59    1
    66    60    62   ar
    67    60    61    1
    68    62    63    1
    69    64    65    1
@<TRIPOS>SUBSTRUCTURE
     1 RES1        1 GROUP             0 ****  ****    0  
@<TRIPOS>MOLECULE
LIGAND_00310
    65    69     1     0     0
SMALL
USER_CHARGES
****
Generated from the CSD

@<TRIPOS>ATOM
     1 C1      -2.8355  -4.3672 -16.3562   C.ar      1 RES1   0.0000
     2 H2      -3.4688  -5.2167 -16.5881   H         1 RES1   0.0000
     3 C3      -1.2605  -2.1772 -15.7604   C.ar      1 RES1   0.0000
     4 H4      -0.6511  -1.3104 -15.5268   H         1 RES1   0.0000
     5 C5      -1.8481  -4.4951 -15.3838   C.ar      1 RES1   0.0000
     6 C6      -3.0311  -3.1753 -17.0311   C.ar      1 RES1   0.0000
     7 H7      -3.7971  -3.0881 -17.7944   H         1 RES1   0.0000
     8 C8      -2.2378  -2.1094 -16.7121   C.ar      1 RES1   0.0000
     9 C9      -1.0663  -3.3781 -15.1029   C.ar      1 RES1   0.0000
    10 H10     -0.2836  -3.4453 -14.3558   H         1 RES1   0.0000
    11 C11     -1.6269  -5.7786 -14.6417   C.2       1 RES1   0.0000
    12 F12     -2.4282  -0.9323 -17.3680   F         1 RES1   0.0000
    13 N13     -1.2275  -7.9377 -14.1568   N.am      1 RES1   0.0000
    14 C14     -1.4824  -9.4110 -14.3017   C.3       1 RES1   0.0000
    15 H15     -1.1968  -9.7057 -15.3104   H         1 RES1   0.0000
    16 C16     -0.8628  -7.6843 -11.7812   C.3       1 RES1   0.0000
    17 H17     -1.4306  -8.4051 -11.1965   H         1 RES1   0.0000
    18 H18      0.0836  -8.1440 -12.0586   H         1 RES1   0.0000
    19 H19     -0.6503  -6.8255 -11.1481   H         1 RES1   0.0000
    20 C20     -1.7513  -5.9390 -13.3057   C.2       1 RES1   0.0000
    21 C21     -2.0254  -4.9138 -12.2663   C.ar      1 RES1   0.0000
    22 O22     -1.1931  -7.3975 -16.3900   O.2       1 RES1   0.0000
    23 C23     -1.3105  -7.0551 -15.2207   C.2       1 RES1   0.0000
    24 N24     -1.6113  -7.2770 -12.9708   N.3       1 RES1   0.0000
    25 C25     -0.8526 -11.6984 -13.4661   C.3       1 RES1   0.0000
    26 H26     -0.2636 -12.2317 -12.7215   H         1 RES1   0.0000
    27 H27     -0.5472 -12.0122 -14.4632   H         1 RES1   0.0000
    28 C28     -3.1736 -11.2666 -14.2269   C.3       1 RES1   0.0000
    29 H29     -2.9365 -11.5800 -15.2425   H         1 RES1   0.0000
    30 H30     -4.2164 -11.4941 -14.0109   H         1 RES1   0.0000
    31 C31     -2.9538  -9.7664 -14.1031   C.3       1 RES1   0.0000
    32 H32     -3.5486  -9.2558 -14.8590   H         1 RES1   0.0000
    33 H33     -3.2683  -9.4409 -13.1127   H         1 RES1   0.0000
    34 C34     -0.6249 -10.2044 -13.3149   C.3       1 RES1   0.0000
    35 H35     -0.8841  -9.9066 -12.3000   H         1 RES1   0.0000
    36 H36      0.4254  -9.9846 -13.5007   H         1 RES1   0.0000
    37 N37     -2.3019 -12.0087 -13.2692   N.4       1 RES1   1.0000
    38 H38     -2.5650 -11.7534 -12.3227   H         1 RES1   0.0000
    39 H39     -2.4438 -13.0048 -13.4028   H         1 RES1   0.0000
    40 N40     -1.1245  -3.9267 -12.1410   N.ar      1 RES1   0.0000
    41 C41     -3.2824  -3.9653 -10.5120   C.ar      1 RES1   0.0000
    42 H42     -4.1537  -3.9839  -9.8657   H         1 RES1   0.0000
    43 N43     -0.4373  -2.0325 -11.0465   N.pl3     1 RES1   0.0000
    44 H44      0.3944  -2.0661 -11.6361   H         1 RES1   0.0000
    45 C45     -3.1458  -4.9686 -11.4502   C.ar      1 RES1   0.0000
    46 H46     -3.8787  -5.7633 -11.5427   H         1 RES1   0.0000
    47 C47     -1.3484  -3.0085 -11.1872   C.ar      1 RES1   0.0000
    48 N48     -2.3988  -2.9712 -10.3544   N.ar      1 RES1   0.0000
    49 C49     -0.5319  -0.9592 -10.0572   C.3       1 RES1   0.0000
    50 H50     -1.0307  -1.3520  -9.1577   H         1 RES1   0.0000
    51 C51     -1.3229   0.2291 -10.5677   C.ar      1 RES1   0.0000
    52 C52      0.8875  -0.5475  -9.6845   C.3       1 RES1   0.0000
    53 H53      0.8849   0.3879  -9.1288   H         1 RES1   0.0000
    54 H54      1.3619  -1.3072  -9.0669   H         1 RES1   0.0000
    55 H55      1.4942  -0.4092 -10.5770   H         1 RES1   0.0000
    56 C56     -2.7634   2.4188 -11.5116   C.ar      1 RES1   0.0000
    57 H57     -3.3246   3.2712 -11.8798   H         1 RES1   0.0000
    58 C58     -0.6878   1.2553 -11.2524   C.ar      1 RES1   0.0000
    59 H59      0.3827   1.2043 -11.4216   H         1 RES1   0.0000
    60 C60     -2.6927   0.3198 -10.3616   C.ar      1 RES1   0.0000
    61 H61     -3.2109  -0.4696  -9.8273   H         1 RES1   0.0000
    62 C62     -3.4074   1.4086 -10.8317   C.ar      1 RES1   0.0000
    63 H63     -4.4777   1.4657 -10.6637   H         1 RES1   0.0000
    64 C64     -1.4042   2.3428 -11.7223   C.ar      1 RES1   0.0000
    65 H65     -0.8938   3.1366 -12.2575   H         1 RES1   0.0000
@<TRIPOS>BOND
     1     1     5   ar
     2     1     6   ar
     3     1     2    1
     4     3     8   ar
     5     3     9   ar
     6     3     4    1
     7     5     9   ar
     8     5    11    1
     9     6     8   ar
    10     6     7    1
    11     8    12    1
    12     9    10    1
    13    11    20    2
    14    11    23    1
    15    13    14    1
    16    13    23   am
    17    13    24    1
    18    14    31    1
    19    14    34    1
    20    14    15    1
    21    16    24    1
    22    16    17    1
    23    16    18    1
    24    16    19    1
    25    20    21    1
    26    20    24    1
    27    21    40   ar
    28    21    45   ar
    29    22    23    2
    30    25    34    1
    31    25    37    1
    32    25    26    1
    33    25    27    1
    34    28    31    1
    35    28    37    1
    36    28    29    1
    37    28    30    1
    38    31    32    1
    39    31    33    1
    40    34    35    1
    41    34    36    1
    42    37    38    1
    43    37    39    1
    44    40    47   ar
    45    41    45   ar
    46    41    48   ar
    47    41    42    1
    48    43    47    1
    49    43    49    1
    50    43    44    1
    51    45    46    1
    52    47    48   ar
    53    49    51    1
    54    49    52    1
    55    49    50    1
    56    51    58   ar
    57    51    60   ar
    58    52    53    1
    59    52    54    1
    60    52    55    1
    61    56    62   ar
    62    56    64   ar
    63    56    57    1
    64    58    64   ar
    65    58    59    1
    66    60    62   ar
    67    60    61    1
    68    62    63    1
    69    64    65    1
@<TRIPOS>SUBSTRUCTURE
     1 RES1        1 GROUP             0 ****  ****    0  
@<TRIPOS>MOLECULE
LIGAND_00311
    65    69     1     0     0
SMALL
USER_CHARGES
****
Generated from the CSD

@<TRIPOS>ATOM
     1 C1      -2.3145  -4.2024 -16.4165   C.ar      1 RES1   0.0000
     2 H2      -2.9877  -4.9820 -16.7564   H         1 RES1   0.0000
     3 C3      -0.6355  -2.1871 -15.5497   C.ar      1 RES1   0.0000
     4 H4       0.0156  -1.3881 -15.2106   H         1 RES1   0.0000
     5 C5      -1.4758  -4.4469 -15.3332   C.ar      1 RES1   0.0000
     6 C6      -2.3121  -2.9814 -17.0675   C.ar      1 RES1   0.0000
     7 H7      -2.9627  -2.8035 -17.9172   H         1 RES1   0.0000
     8 C8      -1.4723  -2.0038 -16.6134   C.ar      1 RES1   0.0000
     9 C9      -0.6378  -3.4164 -14.9165   C.ar      1 RES1   0.0000
    10 H10      0.0331  -3.5757 -14.0800   H         1 RES1   0.0000
    11 C11     -1.4699  -5.7631 -14.6156   C.2       1 RES1   0.0000
    12 F12     -1.4686  -0.7987 -17.2454   F         1 RES1   0.0000
    13 N13     -1.3520  -7.9629 -14.1649   N.am      1 RES1   0.0000
    14 C14     -1.7427  -9.3966 -14.3845   C.3       1 RES1   0.0000
    15 H15     -1.3953  -9.6938 -15.3729   H         1 RES1   0.0000
    16 C16     -1.2167  -7.8034 -11.7572   C.3       1 RES1   0.0000
    17 H17     -1.9027  -8.4964 -11.2745   H         1 RES1   0.0000
    18 H18     -0.2830  -8.3286 -11.9473   H         1 RES1   0.0000
    19 H19     -1.0133  -6.9893 -11.0647   H         1 RES1   0.0000
    20 C20     -1.7513  -5.9390 -13.3057   C.2       1 RES1   0.0000
    21 C21     -2.0254  -4.9138 -12.2663   C.ar      1 RES1   0.0000
    22 O22     -1.0248  -7.3797 -16.3632   O.2       1 RES1   0.0000
    23 C23     -1.2291  -7.0528 -15.2014   C.2       1 RES1   0.0000
    24 N24     -1.7882  -7.2914 -13.0032   N.3       1 RES1   0.0000
    25 C25     -1.4334 -11.7586 -13.5769   C.3       1 RES1   0.0000
    26 H26     -0.9752 -12.3704 -12.8012   H         1 RES1   0.0000
    27 H27     -1.0696 -12.0772 -14.5527   H         1 RES1   0.0000
    28 C28     -3.6156 -11.0640 -14.5296   C.3       1 RES1   0.0000
    29 H29     -3.3176 -11.3744 -15.5300   H         1 RES1   0.0000
    30 H30     -4.6920 -11.1851 -14.4175   H         1 RES1   0.0000
    31 C31     -3.2549  -9.5992 -14.3332   C.3       1 RES1   0.0000
    32 H32     -3.7202  -9.0091 -15.1213   H         1 RES1   0.0000
    33 H33     -3.6260  -9.2678 -13.3645   H         1 RES1   0.0000
    34 C34     -1.0682 -10.3016 -13.3527   C.3       1 RES1   0.0000
    35 H35     -1.3896 -10.0043 -12.3556   H         1 RES1   0.0000
    36 H36      0.0120 -10.1896 -13.4343   H         1 RES1   0.0000
    37 N37     -2.9191 -11.9187 -13.5236   N.4       1 RES1   1.0000
    38 H38     -3.2424 -11.6614 -12.5965   H         1 RES1   0.0000
    39 H39     -3.1497 -12.8904 -13.7048   H         1 RES1   0.0000
    40 N40     -3.1660  -4.2176 -12.3926   N.ar      1 RES1   0.0000
    41 C41     -1.5085  -3.6809 -10.3247   C.ar      1 RES1   0.0000
    42 H42     -0.8414  -3.4750  -9.4941   H         1 RES1   0.0000
    43 N43     -4.5422  -2.5584 -11.6104   N.pl3     1 RES1   0.0000
    44 H44     -5.1269  -2.7418 -12.4257   H         1 RES1   0.0000
    45 C45     -1.1491  -4.6689 -11.2192   C.ar      1 RES1   0.0000
    46 H46     -0.2241  -5.2252 -11.1095   H         1 RES1   0.0000
    47 C47     -3.4120  -3.2702 -11.4733   C.ar      1 RES1   0.0000
    48 N48     -2.6338  -2.9618 -10.4257   N.ar      1 RES1   0.0000
    49 C49     -4.9555  -1.4929 -10.6975   C.3       1 RES1   0.0000
    50 H50     -4.0551  -0.9887 -10.3135   H         1 RES1   0.0000
    51 C51     -5.7538  -2.0177  -9.5204   C.ar      1 RES1   0.0000
    52 C52     -5.7702  -0.4860 -11.5009   C.3       1 RES1   0.0000
    53 H53     -6.2728   0.2183 -10.8413   H         1 RES1   0.0000
    54 H54     -5.1311   0.0791 -12.1761   H         1 RES1   0.0000
    55 H55     -6.5277  -0.9920 -12.0958   H         1 RES1   0.0000
    56 C56     -7.2339  -2.9805  -7.3657   C.ar      1 RES1   0.0000
    57 H57     -7.8101  -3.3562  -6.5266   H         1 RES1   0.0000
    58 C58     -7.1334  -2.1390  -9.6041   C.ar      1 RES1   0.0000
    59 H59     -7.6417  -1.8550 -10.5196   H         1 RES1   0.0000
    60 C60     -5.1280  -2.3849  -8.3370   C.ar      1 RES1   0.0000
    61 H61     -4.0503  -2.2972  -8.2474   H         1 RES1   0.0000
    62 C62     -5.8649  -2.8637  -7.2670   C.ar      1 RES1   0.0000
    63 H63     -5.3621  -3.1475  -6.3485   H         1 RES1   0.0000
    64 C64     -7.8686  -2.6186  -8.5334   C.ar      1 RES1   0.0000
    65 H65     -8.9466  -2.7095  -8.6147   H         1 RES1   0.0000
@<TRIPOS>BOND
     1     1     5   ar
     2     1     6   ar
     3     1     2    1
     4     3     8   ar
     5     3     9   ar
     6     3     4    1
     7     5     9   ar
     8     5    11    1
     9     6     8   ar
    10     6     7    1
    11     8    12    1
    12     9    10    1
    13    11    20    2
    14    11    23    1
    15    13    14    1
    16    13    23   am
    17    13    24    1
    18    14    31    1
    19    14    34    1
    20    14    15    1
    21    16    24    1
    22    16    17    1
    23    16    18    1
    24    16    19    1
    25    20    21    1
    26    20    24    1
    27    21    40   ar
    28    21    45   ar
    29    22    23    2
    30    25    34    1
    31    25    37    1
    32    25    26    1
    33    25    27    1
    34    28    31    1
    35    28    37    1
    36    28    29    1
    37    28    30    1
    38    31    32    1
    39    31    33    1
    40    34    35    1
    41    34    36    1
    42    37    38    1
    43    37    39    1
    44    40    47   ar
    45    41    45   ar
    46    41    48   ar
    47    41    42    1
    48    43    47    1
    49    43    49    1
    50    43    44    1
    51    45    46    1
    52    47    48   ar
    53    49    51    1
    54    49    52    1
    55    49    50    1
    56    51    58   ar
    57    51    60   ar
    58    52    53    1
    59    52    54    1
    60    52    55    1
    61    56    62   ar
    62    56    64   ar
    63    56    57    1
    64    58    64   ar
    65    58    59    1
    66    60    62   ar
    67    60    61    1
    68    62    63    1
    69    64    65    1
@<TRIPOS>SUBSTRUCTURE
     1 RES1        1 GROUP             0 ****  ****    0  
@<TRIPOS>MOLECULE
LIGAND_00312
    65    69     1     0     0
SMALL
USER_CHARGES
****
Generated from the CSD

@<TRIPOS>ATOM
     1 C1       0.1316  -3.5487 -14.7739   C.ar      1 RES1   0.0000
     2 H2      -0.9433  -3.4592 -14.8878   H         1 RES1   0.0000
     3 C3       2.8694  -3.7386 -14.4574   C.ar      1 RES1   0.0000
     4 H4       3.9448  -3.8031 -14.3280   H         1 RES1   0.0000
     5 C5       0.6788  -4.7656 -14.3782   C.ar      1 RES1   0.0000
     6 C6       0.9307  -2.4464 -15.0204   C.ar      1 RES1   0.0000
     7 H7       0.4957  -1.5046 -15.3379   H         1 RES1   0.0000
     8 C8       2.2810  -2.5712 -14.8525   C.ar      1 RES1   0.0000
     9 C9       2.0609  -4.8366 -14.2275   C.ar      1 RES1   0.0000
    10 H10      2.5203  -5.7714 -13.9271   H         1 RES1   0.0000
    11 C11     -0.1742  -5.9674 -14.1039   C.2       1 RES1   0.0000
    12 F12      3.0726  -1.4895 -15.0879   F         1 RES1   0.0000
    13 N13     -1.2826  -7.9066 -14.2098   N.am      1 RES1   0.0000
    14 C14     -1.6279  -9.3543 -14.4127   C.3       1 RES1   0.0000
    15 H15     -1.0327  -9.7304 -15.2435   H         1 RES1   0.0000
    16 C16     -3.0843  -7.3924 -12.6301   C.3       1 RES1   0.0000
    17 H17     -3.3442  -6.6645 -11.8643   H         1 RES1   0.0000
    18 H18     -3.7644  -7.2588 -13.4689   H         1 RES1   0.0000
    19 H19     -3.2426  -8.3877 -12.2202   H         1 RES1   0.0000
    20 C20     -1.0688  -6.0097 -13.0848   C.2       1 RES1   0.0000
    21 C21     -1.4087  -4.9383 -12.1137   C.ar      1 RES1   0.0000
    22 O22      0.3605  -7.6243 -15.8044   O.2       1 RES1   0.0000
    23 C23     -0.2696  -7.2004 -14.8443   C.2       1 RES1   0.0000
    24 N24     -1.6945  -7.2236 -13.0556   N.3       1 RES1   0.0000
    25 C25     -1.5953 -11.6419 -13.3672   C.3       1 RES1   0.0000
    26 H26     -1.3757 -12.1872 -12.4506   H         1 RES1   0.0000
    27 H27     -0.9880 -12.0382 -14.1797   H         1 RES1   0.0000
    28 C28     -3.4250 -11.0322 -14.9268   C.3       1 RES1   0.0000
    29 H29     -2.8743 -11.4225 -15.7814   H         1 RES1   0.0000
    30 H30     -4.4939 -11.1462 -15.1010   H         1 RES1   0.0000
    31 C31     -3.1017  -9.5554 -14.7567   C.3       1 RES1   0.0000
    32 H32     -3.3251  -9.0327 -15.6856   H         1 RES1   0.0000
    33 H33     -3.7137  -9.1470 -13.9540   H         1 RES1   0.0000
    34 C34     -1.2752 -10.1705 -13.1686   C.3       1 RES1   0.0000
    35 H35     -1.8478  -9.7936 -12.3225   H         1 RES1   0.0000
    36 H36     -0.2111 -10.0632 -12.9635   H         1 RES1   0.0000
    37 N37     -3.0431 -11.8004 -13.7055   N.4       1 RES1   1.0000
    38 H38     -3.5994 -11.4691 -12.9239   H         1 RES1   0.0000
    39 H39     -3.2355 -12.7841 -13.8649   H         1 RES1   0.0000
    40 N40     -1.0980  -5.1692 -10.8285   N.ar      1 RES1   0.0000
    41 C41     -2.3055  -2.8456 -11.5027   C.ar      1 RES1   0.0000
    42 H42     -2.7847  -1.9129 -11.7813   H         1 RES1   0.0000
    43 N43     -1.1330  -4.4573  -8.6489   N.pl3     1 RES1   0.0000
    44 H44     -0.6857  -5.3439  -8.4158   H         1 RES1   0.0000
    45 C45     -2.0280  -3.7587 -12.5000   C.ar      1 RES1   0.0000
    46 H46     -2.2846  -3.5636 -13.5360   H         1 RES1   0.0000
    47 C47     -1.4239  -4.2187  -9.9377   C.ar      1 RES1   0.0000
    48 N48     -2.0171  -3.0474 -10.2104   N.ar      1 RES1   0.0000
    49 C49     -1.4742  -3.5534  -7.5507   C.3       1 RES1   0.0000
    50 H50     -1.0996  -2.5469  -7.7933   H         1 RES1   0.0000
    51 C51     -0.8657  -3.9901  -6.2325   C.ar      1 RES1   0.0000
    52 C52     -2.9943  -3.4956  -7.4547   C.3       1 RES1   0.0000
    53 H53     -3.3048  -2.9090  -6.5926   H         1 RES1   0.0000
    54 H54     -3.4218  -3.0406  -8.3458   H         1 RES1   0.0000
    55 H55     -3.4110  -4.4953  -7.3517   H         1 RES1   0.0000
    56 C56      0.2381  -4.7940  -3.8044   C.ar      1 RES1   0.0000
    57 H57      0.6681  -5.1077  -2.8590   H         1 RES1   0.0000
    58 C58     -1.6781  -4.3044  -5.1526   C.ar      1 RES1   0.0000
    59 H59     -2.7560  -4.2358  -5.2550   H         1 RES1   0.0000
    60 C60      0.5103  -4.0830  -6.0746   C.ar      1 RES1   0.0000
    61 H61      1.1657  -3.8405  -6.9045   H         1 RES1   0.0000
    62 C62      1.0575  -4.4830  -4.8672   C.ar      1 RES1   0.0000
    63 H63      2.1348  -4.5517  -4.7585   H         1 RES1   0.0000
    64 C64     -1.1292  -4.7050  -3.9463   C.ar      1 RES1   0.0000
    65 H65     -1.7775  -4.9492  -3.1114   H         1 RES1   0.0000
@<TRIPOS>BOND
     1     1     5   ar
     2     1     6   ar
     3     1     2    1
     4     3     8   ar
     5     3     9   ar
     6     3     4    1
     7     5     9   ar
     8     5    11    1
     9     6     8   ar
    10     6     7    1
    11     8    12    1
    12     9    10    1
    13    11    20    2
    14    11    23    1
    15    13    14    1
    16    13    23   am
    17    13    24    1
    18    14    31    1
    19    14    34    1
    20    14    15    1
    21    16    24    1
    22    16    17    1
    23    16    18    1
    24    16    19    1
    25    20    21    1
    26    20    24    1
    27    21    40   ar
    28    21    45   ar
    29    22    23    2
    30    25    34    1
    31    25    37    1
    32    25    26    1
    33    25    27    1
    34    28    31    1
    35    28    37    1
    36    28    29    1
    37    28    30    1
    38    31    32    1
    39    31    33    1
    40    34    35    1
    41    34    36    1
    42    37    38    1
    43    37    39    1
    44    40    47   ar
    45    41    45   ar
    46    41    48   ar
    47    41    42    1
    48    43    47    1
    49    43    49    1
    50    43    44    1
    51    45    46    1
    52    47    48   ar
    53    49    51    1
    54    49    52    1
    55    49    50    1
    56    51    58   ar
    57    51    60   ar
    58    52    53    1
    59    52    54    1
    60    52    55    1
    61    56    62   ar
    62    56    64   ar
    63    56    57    1
    64    58    64   ar
    65    58    59    1
    66    60    62   ar
    67    60    61    1
    68    62    63    1
    69    64    65    1
@<TRIPOS>SUBSTRUCTURE
     1 RES1        1 GROUP             0 ****  ****    0  
@<TRIPOS>MOLECULE
LIGAND_00313
    65    69     1     0     0
SMALL
USER_CHARGES
****
Generated from the CSD

@<TRIPOS>ATOM
     1 C1      -0.5141  -3.8751 -15.9971   C.ar      1 RES1   0.0000
     2 H2      -1.3349  -4.3184 -16.5505   H         1 RES1   0.0000
     3 C3       1.5530  -2.7059 -14.5858   C.ar      1 RES1   0.0000
     4 H4       2.3598  -2.2367 -14.0326   H         1 RES1   0.0000
     5 C5      -0.0133  -4.5287 -14.8751   C.ar      1 RES1   0.0000
     6 C6       0.0099  -2.6662 -16.4197   C.ar      1 RES1   0.0000
     7 H7      -0.3807  -2.1689 -17.3012   H         1 RES1   0.0000
     8 C8       1.0301  -2.1121 -15.6990   C.ar      1 RES1   0.0000
     9 C9       1.0295  -3.9204 -14.1820   C.ar      1 RES1   0.0000
    10 H10      1.4475  -4.4061 -13.3077   H         1 RES1   0.0000
    11 C11     -0.5732  -5.8367 -14.4031   C.2       1 RES1   0.0000
    12 F12      1.5468  -0.9206 -16.1056   F         1 RES1   0.0000
    13 N13     -1.2186  -7.9484 -14.1439   N.am      1 RES1   0.0000
    14 C14     -1.4581  -9.4249 -14.2814   C.3       1 RES1   0.0000
    15 H15     -1.0414  -9.7474 -15.2345   H         1 RES1   0.0000
    16 C16     -2.0115  -7.8510 -11.7482   C.3       1 RES1   0.0000
    17 H17     -2.5614  -7.1392 -11.1360   H         1 RES1   0.0000
    18 H18     -2.6640  -8.6976 -11.9515   H         1 RES1   0.0000
    19 H19     -1.1610  -8.2088 -11.1717   H         1 RES1   0.0000
    20 C20     -1.1594  -5.9688 -13.1688   C.2       1 RES1   0.0000
    21 C21     -1.4160  -4.9157 -12.1531   C.ar      1 RES1   0.0000
    22 O22     -0.2156  -7.5043 -16.1160   O.2       1 RES1   0.0000
    23 C23     -0.6185  -7.1188 -15.0264   C.2       1 RES1   0.0000
    24 N24     -1.5656  -7.2272 -12.9945   N.pl3     1 RES1   0.0000
    25 C25     -0.9552 -11.6888 -13.3073   C.3       1 RES1   0.0000
    26 H26     -0.4732 -12.2017 -12.4763   H         1 RES1   0.0000
    27 H27     -0.5206 -12.0301 -14.2457   H         1 RES1   0.0000
    28 C28     -3.1518 -11.2769 -14.3830   C.3       1 RES1   0.0000
    29 H29     -2.7825 -11.6182 -15.3489   H         1 RES1   0.0000
    30 H30     -4.2151 -11.4977 -14.3023   H         1 RES1   0.0000
    31 C31     -2.9442  -9.7740 -14.2718   C.3       1 RES1   0.0000
    32 H32     -3.4306  -9.2840 -15.1140   H         1 RES1   0.0000
    33 H33     -3.3869  -9.4212 -13.3415   H         1 RES1   0.0000
    34 C34     -0.7435 -10.1913 -13.1677   C.3       1 RES1   0.0000
    35 H35     -1.1347  -9.8656 -12.2050   H         1 RES1   0.0000
    36 H36      0.3231  -9.9773 -13.2172   H         1 RES1   0.0000
    37 N37     -2.4191 -11.9928 -13.2975   N.4       1 RES1   1.0000
    38 H38     -2.8053 -11.7115 -12.4020   H         1 RES1   0.0000
    39 H39     -2.5461 -12.9922 -13.4217   H         1 RES1   0.0000
    40 N40     -0.3411  -4.2871 -11.6519   N.ar      1 RES1   0.0000
    41 C41     -2.8045  -3.6095 -10.7664   C.ar      1 RES1   0.0000
    42 H42     -3.7964  -3.3386 -10.4200   H         1 RES1   0.0000
    43 N43      0.5165  -2.7366 -10.1964   N.pl3     1 RES1   0.0000
    44 H44      0.3606  -1.9792  -9.5313   H         1 RES1   0.0000
    45 C45     -2.6965  -4.5965 -11.7253   C.ar      1 RES1   0.0000
    46 H46     -3.5713  -5.1000 -12.1232   H         1 RES1   0.0000
    47 C47     -0.5591  -3.3512 -10.7141   C.ar      1 RES1   0.0000
    48 N48     -1.7533  -2.9686 -10.2391   N.ar      1 RES1   0.0000
    49 C49      1.8962  -3.0426 -10.5739   C.3       1 RES1   0.0000
    50 H50      1.9086  -3.3778 -11.6226   H         1 RES1   0.0000
    51 C51      2.5032  -4.1319  -9.7117   C.ar      1 RES1   0.0000
    52 C52      2.7016  -1.7530 -10.4669   C.3       1 RES1   0.0000
    53 H53      3.7340  -1.9163 -10.7690   H         1 RES1   0.0000
    54 H54      2.2804  -0.9789 -11.1049   H         1 RES1   0.0000
    55 H55      2.7028  -1.3846  -9.4432   H         1 RES1   0.0000
    56 C56      3.6295  -6.1237  -8.1228   C.ar      1 RES1   0.0000
    57 H57      4.0676  -6.8993  -7.5035   H         1 RES1   0.0000
    58 C58      3.6344  -3.8776  -8.9497   C.ar      1 RES1   0.0000
    59 H59      4.0859  -2.8913  -8.9735   H         1 RES1   0.0000
    60 C60      1.9467  -5.4028  -9.6661   C.ar      1 RES1   0.0000
    61 H61      1.0630  -5.6258 -10.2548   H         1 RES1   0.0000
    62 C62      2.5074  -6.3917  -8.8756   C.ar      1 RES1   0.0000
    63 H63      2.0612  -7.3803  -8.8493   H         1 RES1   0.0000
    64 C64      4.1933  -4.8674  -8.1593   C.ar      1 RES1   0.0000
    65 H65      5.0769  -4.6528  -7.5676   H         1 RES1   0.0000
@<TRIPOS>BOND
     1     1     5   ar
     2     1     6   ar
     3     1     2    1
     4     3     8   ar
     5     3     9   ar
     6     3     4    1
     7     5     9   ar
     8     5    11    1
     9     6     8   ar
    10     6     7    1
    11     8    12    1
    12     9    10    1
    13    11    20    2
    14    11    23    1
    15    13    14    1
    16    13    23   am
    17    13    24    1
    18    14    31    1
    19    14    34    1
    20    14    15    1
    21    16    24    1
    22    16    17    1
    23    16    18    1
    24    16    19    1
    25    20    21    1
    26    20    24    1
    27    21    40   ar
    28    21    45   ar
    29    22    23    2
    30    25    34    1
    31    25    37    1
    32    25    26    1
    33    25    27    1
    34    28    31    1
    35    28    37    1
    36    28    29    1
    37    28    30    1
    38    31    32    1
    39    31    33    1
    40    34    35    1
    41    34    36    1
    42    37    38    1
    43    37    39    1
    44    40    47   ar
    45    41    45   ar
    46    41    48   ar
    47    41    42    1
    48    43    47    1
    49    43    49    1
    50    43    44    1
    51    45    46    1
    52    47    48   ar
    53    49    51    1
    54    49    52    1
    55    49    50    1
    56    51    58   ar
    57    51    60   ar
    58    52    53    1
    59    52    54    1
    60    52    55    1
    61    56    62   ar
    62    56    64   ar
    63    56    57    1
    64    58    64   ar
    65    58    59    1
    66    60    62   ar
    67    60    61    1
    68    62    63    1
    69    64    65    1
@<TRIPOS>SUBSTRUCTURE
     1 RES1        1 GROUP             0 ****  ****    0  
@<TRIPOS>MOLECULE
LIGAND_00314
    65    69     1     0     0
SMALL
USER_CHARGES
****
Generated from the CSD

@<TRIPOS>ATOM
     1 C1      -0.9002  -4.6131 -10.9181   C.ar      1 RES1   0.0000
     2 H2      -0.1572  -5.3120 -10.5495   H         1 RES1   0.0000
     3 C3      -2.7635  -2.7979 -11.8482   C.ar      1 RES1   0.0000
     4 H4      -3.4888  -2.0765 -12.2098   H         1 RES1   0.0000
     5 C5      -1.4903  -4.8330 -12.1592   C.ar      1 RES1   0.0000
     6 C6      -1.2376  -3.5164 -10.1449   C.ar      1 RES1   0.0000
     7 H7      -0.7793  -3.3585  -9.1744   H         1 RES1   0.0000
     8 C8      -2.1606  -2.6352 -10.6336   C.ar      1 RES1   0.0000
     9 C9      -2.4275  -3.9053 -12.6051   C.ar      1 RES1   0.0000
    10 H10     -2.9112  -4.0503 -13.5643   H         1 RES1   0.0000
    11 C11     -1.1322  -6.0144 -13.0097   C.2       1 RES1   0.0000
    12 F12     -2.4932  -1.5513  -9.8809   F         1 RES1   0.0000
    13 N13     -1.2237  -7.9663 -14.1224   N.am      1 RES1   0.0000
    14 C14     -1.4916  -9.4414 -14.2170   C.3       1 RES1   0.0000
    15 H15     -0.9796  -9.8218 -15.0996   H         1 RES1   0.0000
    16 C16      0.7896  -7.6985 -15.4321   C.3       1 RES1   0.0000
    17 H17      1.8571  -7.8436 -15.2794   H         1 RES1   0.0000
    18 H18      0.3988  -8.5751 -15.9446   H         1 RES1   0.0000
    19 H19      0.6536  -6.8366 -16.0819   H         1 RES1   0.0000
    20 C20      0.0870  -6.2522 -13.5415   C.2       1 RES1   0.0000
    21 C21      1.3005  -5.3960 -13.5085   C.ar      1 RES1   0.0000
    22 O22     -3.1444  -7.3623 -13.0149   O.2       1 RES1   0.0000
    23 C23     -1.9935  -7.1133 -13.3492   C.2       1 RES1   0.0000
    24 N24      0.1059  -7.4956 -14.1544   N.3       1 RES1   0.0000
    25 C25     -1.1728 -11.6654 -13.0862   C.3       1 RES1   0.0000
    26 H26     -0.8044 -12.1480 -12.1821   H         1 RES1   0.0000
    27 H27     -0.6452 -12.0643 -13.9513   H         1 RES1   0.0000
    28 C28     -3.2193 -11.2526 -14.4254   C.3       1 RES1   0.0000
    29 H29     -2.7533 -11.6513 -15.3253   H         1 RES1   0.0000
    30 H30     -4.2912 -11.4421 -14.4572   H         1 RES1   0.0000
    31 C31     -2.9793  -9.7517 -14.3619   C.3       1 RES1   0.0000
    32 H32     -3.3515  -9.2925 -15.2765   H         1 RES1   0.0000
    33 H33     -3.5137  -9.3415 -13.5063   H         1 RES1   0.0000
    34 C34     -0.9322 -10.1687 -12.9937   C.3       1 RES1   0.0000
    35 H35     -1.4200  -9.7852 -12.0988   H         1 RES1   0.0000
    36 H36      0.1393  -9.9845 -12.9303   H         1 RES1   0.0000
    37 N37     -2.6371 -11.9314 -13.2305   N.4       1 RES1   1.0000
    38 H38     -3.1136 -11.5957 -12.3995   H         1 RES1   0.0000
    39 H39     -2.7799 -12.9322 -13.3214   H         1 RES1   0.0000
    40 N40      1.7579  -4.9532 -14.6902   N.ar      1 RES1   0.0000
    41 C41      3.0726  -4.2815 -12.4248   C.ar      1 RES1   0.0000
    42 H42      3.5916  -4.0110 -11.5112   H         1 RES1   0.0000
    43 N43      3.3401  -3.7737 -15.8580   N.pl3     1 RES1   0.0000
    44 H44      4.1563  -3.1621 -15.8556   H         1 RES1   0.0000
    45 C45      1.9462  -5.0730 -12.3240   C.ar      1 RES1   0.0000
    46 H46      1.5851  -5.4274 -11.3642   H         1 RES1   0.0000
    47 C47      2.8692  -4.1997 -14.6750   C.ar      1 RES1   0.0000
    48 N48      3.5608  -3.8298 -13.5873   N.ar      1 RES1   0.0000
    49 C49      2.7185  -4.0803 -17.1461   C.3       1 RES1   0.0000
    50 H50      1.6291  -4.1520 -17.0035   H         1 RES1   0.0000
    51 C51      3.2157  -5.3875 -17.7312   C.ar      1 RES1   0.0000
    52 C52      3.0093  -2.9179 -18.0881   C.3       1 RES1   0.0000
    53 H53      2.5404  -3.0790 -19.0565   H         1 RES1   0.0000
    54 H54      2.6302  -1.9836 -17.6794   H         1 RES1   0.0000
    55 H55      4.0805  -2.8091 -18.2447   H         1 RES1   0.0000
    56 C56      4.1431  -7.7875 -18.7992   C.ar      1 RES1   0.0000
    57 H57      4.5039  -8.7226 -19.2146   H         1 RES1   0.0000
    58 C58      4.5014  -5.8346 -17.4624   C.ar      1 RES1   0.0000
    59 H59      5.1534  -5.2421 -16.8291   H         1 RES1   0.0000
    60 C60      2.4027  -6.1625 -18.5467   C.ar      1 RES1   0.0000
    61 H61      1.3941  -5.8325 -18.7724   H         1 RES1   0.0000
    62 C62      2.8648  -7.3554 -19.0766   C.ar      1 RES1   0.0000
    63 H63      2.2179  -7.9511 -19.7119   H         1 RES1   0.0000
    64 C64      4.9616  -7.0280 -17.9925   C.ar      1 RES1   0.0000
    65 H65      5.9688  -7.3653 -17.7718   H         1 RES1   0.0000
@<TRIPOS>BOND
     1     1     5   ar
     2     1     6   ar
     3     1     2    1
     4     3     8   ar
     5     3     9   ar
     6     3     4    1
     7     5     9   ar
     8     5    11    1
     9     6     8   ar
    10     6     7    1
    11     8    12    1
    12     9    10    1
    13    11    20    2
    14    11    23    1
    15    13    14    1
    16    13    23   am
    17    13    24    1
    18    14    31    1
    19    14    34    1
    20    14    15    1
    21    16    24    1
    22    16    17    1
    23    16    18    1
    24    16    19    1
    25    20    21    1
    26    20    24    1
    27    21    40   ar
    28    21    45   ar
    29    22    23    2
    30    25    34    1
    31    25    37    1
    32    25    26    1
    33    25    27    1
    34    28    31    1
    35    28    37    1
    36    28    29    1
    37    28    30    1
    38    31    32    1
    39    31    33    1
    40    34    35    1
    41    34    36    1
    42    37    38    1
    43    37    39    1
    44    40    47   ar
    45    41    45   ar
    46    41    48   ar
    47    41    42    1
    48    43    47    1
    49    43    49    1
    50    43    44    1
    51    45    46    1
    52    47    48   ar
    53    49    51    1
    54    49    52    1
    55    49    50    1
    56    51    58   ar
    57    51    60   ar
    58    52    53    1
    59    52    54    1
    60    52    55    1
    61    56    62   ar
    62    56    64   ar
    63    56    57    1
    64    58    64   ar
    65    58    59    1
    66    60    62   ar
    67    60    61    1
    68    62    63    1
    69    64    65    1
@<TRIPOS>SUBSTRUCTURE
     1 RES1        1 GROUP             0 ****  ****    0  
@<TRIPOS>MOLECULE
LIGAND_00315
    65    69     1     0     0
SMALL
USER_CHARGES
****
Generated from the CSD

@<TRIPOS>ATOM
     1 C1      -0.3515  -3.4833 -14.8867   C.ar      1 RES1   0.0000
     2 H2      -1.4321  -3.4900 -14.7928   H         1 RES1   0.0000
     3 C3       2.4023  -3.4283 -15.0992   C.ar      1 RES1   0.0000
     4 H4       3.4840  -3.3966 -15.1775   H         1 RES1   0.0000
     5 C5       0.3657  -4.6458 -14.6200   C.ar      1 RES1   0.0000
     6 C6       0.2860  -2.3149 -15.2645   C.ar      1 RES1   0.0000
     7 H7      -0.2824  -1.4162 -15.4797   H         1 RES1   0.0000
     8 C8       1.6492  -2.3187 -15.3581   C.ar      1 RES1   0.0000
     9 C9       1.7519  -4.5933 -14.7358   C.ar      1 RES1   0.0000
    10 H10      2.3404  -5.4828 -14.5419   H         1 RES1   0.0000
    11 C11     -0.3107  -5.9180 -14.2061   C.2       1 RES1   0.0000
    12 F12      2.2834  -1.1715 -15.7238   F         1 RES1   0.0000
    13 N13     -1.2019  -7.9667 -14.1151   N.am      1 RES1   0.0000
    14 C14     -1.4061  -9.4506 -14.2288   C.3       1 RES1   0.0000
    15 H15     -0.8676  -9.7993 -15.1088   H         1 RES1   0.0000
    16 C16     -2.8510  -7.5772 -12.3446   C.3       1 RES1   0.0000
    17 H17     -3.0787  -6.8733 -11.5468   H         1 RES1   0.0000
    18 H18     -3.6414  -7.5117 -13.0896   H         1 RES1   0.0000
    19 H19     -2.8622  -8.5810 -11.9253   H         1 RES1   0.0000
    20 C20     -1.0688  -6.0097 -13.0848   C.2       1 RES1   0.0000
    21 C21     -1.4087  -4.9383 -12.1137   C.ar      1 RES1   0.0000
    22 O22      0.2005  -7.5828 -15.9061   O.2       1 RES1   0.0000
    23 C23     -0.3552  -7.1859 -14.8903   C.2       1 RES1   0.0000
    24 N24     -1.5483  -7.2807 -12.9415   N.3       1 RES1   0.0000
    25 C25     -1.0080 -11.6718 -13.1178   C.3       1 RES1   0.0000
    26 H26     -0.6308 -12.1486 -12.2142   H         1 RES1   0.0000
    27 H27     -0.4534 -12.0385 -13.9803   H         1 RES1   0.0000
    28 C28     -3.0532 -11.3304 -14.4788   C.3       1 RES1   0.0000
    29 H29     -2.5597 -11.6990 -15.3768   H         1 RES1   0.0000
    30 H30     -4.1157 -11.5644 -14.5264   H         1 RES1   0.0000
    31 C31     -2.8775  -9.8216 -14.3962   C.3       1 RES1   0.0000
    32 H32     -3.2574  -9.3682 -15.3106   H         1 RES1   0.0000
    33 H33     -3.4393  -9.4438 -13.5432   H         1 RES1   0.0000
    34 C34     -0.8318 -10.1674 -13.0063   C.3       1 RES1   0.0000
    35 H35     -1.3464  -9.8148 -12.1136   H         1 RES1   0.0000
    36 H36      0.2301  -9.9391 -12.9271   H         1 RES1   0.0000
    37 N37     -2.4578 -11.9975 -13.2838   N.4       1 RES1   1.0000
    38 H38     -2.9583 -11.6914 -12.4555   H         1 RES1   0.0000
    39 H39     -2.5572 -13.0023 -13.3871   H         1 RES1   0.0000
    40 N40     -0.3887  -4.4058 -11.4225   N.ar      1 RES1   0.0000
    41 C41     -2.9021  -3.5162 -10.9716   C.ar      1 RES1   0.0000
    42 H42     -3.9125  -3.1599 -10.8002   H         1 RES1   0.0000
    43 N43      0.3295  -2.9360  -9.8156   N.pl3     1 RES1   0.0000
    44 H44      1.2648  -3.3085  -9.9789   H         1 RES1   0.0000
    45 C45     -2.7122  -4.5088 -11.9118   C.ar      1 RES1   0.0000
    46 H46     -3.5434  -4.9341 -12.4645   H         1 RES1   0.0000
    47 C47     -0.6870  -3.4545 -10.5230   C.ar      1 RES1   0.0000
    48 N48     -1.9089  -2.9693 -10.2586   N.ar      1 RES1   0.0000
    49 C49      0.1709  -1.9146  -8.7806   C.3       1 RES1   0.0000
    50 H50     -0.3609  -1.0534  -9.2139   H         1 RES1   0.0000
    51 C51      1.5008  -1.4350  -8.2332   C.ar      1 RES1   0.0000
    52 C52     -0.6902  -2.5093  -7.6724   C.3       1 RES1   0.0000
    53 H53     -0.4426  -2.0651  -6.7105   H         1 RES1   0.0000
    54 H54     -1.7463  -2.3328  -7.8652   H         1 RES1   0.0000
    55 H55     -0.5342  -3.5835  -7.5993   H         1 RES1   0.0000
    56 C56      3.9480  -0.5684  -7.2229   C.ar      1 RES1   0.0000
    57 H57      4.9013  -0.2308  -6.8300   H         1 RES1   0.0000
    58 C58      2.3727  -2.3254  -7.6232   C.ar      1 RES1   0.0000
    59 H59      2.0977  -3.3715  -7.5383   H         1 RES1   0.0000
    60 C60      1.8749  -0.1015  -8.3264   C.ar      1 RES1   0.0000
    61 H61      1.2088   0.6136  -8.7976   H         1 RES1   0.0000
    62 C62      3.0917   0.3278  -7.8241   C.ar      1 RES1   0.0000
    63 H63      3.3711   1.3730  -7.9046   H         1 RES1   0.0000
    64 C64      3.5893  -1.8945  -7.1221   C.ar      1 RES1   0.0000
    65 H65      4.2613  -2.6030  -6.6494   H         1 RES1   0.0000
@<TRIPOS>BOND
     1     1     5   ar
     2     1     6   ar
     3     1     2    1
     4     3     8   ar
     5     3     9   ar
     6     3     4    1
     7     5     9   ar
     8     5    11    1
     9     6     8   ar
    10     6     7    1
    11     8    12    1
    12     9    10    1
    13    11    20    2
    14    11    23    1
    15    13    14    1
    16    13    23   am
    17    13    24    1
    18    14    31    1
    19    14    34    1
    20    14    15    1
    21    16    24    1
    22    16    17    1
    23    16    18    1
    24    16    19    1
    25    20    21    1
    26    20    24    1
    27    21    40   ar
    28    21    45   ar
    29    22    23    2
    30    25    34    1
    31    25    37    1
    32    25    26    1
    33    25    27    1
    34    28    31    1
    35    28    37    1
    36    28    29    1
    37    28    30    1
    38    31    32    1
    39    31    33    1
    40    34    35    1
    41    34    36    1
    42    37    38    1
    43    37    39    1
    44    40    47   ar
    45    41    45   ar
    46    41    48   ar
    47    41    42    1
    48    43    47    1
    49    43    49    1
    50    43    44    1
    51    45    46    1
    52    47    48   ar
    53    49    51    1
    54    49    52    1
    55    49    50    1
    56    51    58   ar
    57    51    60   ar
    58    52    53    1
    59    52    54    1
    60    52    55    1
    61    56    62   ar
    62    56    64   ar
    63    56    57    1
    64    58    64   ar
    65    58    59    1
    66    60    62   ar
    67    60    61    1
    68    62    63    1
    69    64    65    1
@<TRIPOS>SUBSTRUCTURE
     1 RES1        1 GROUP             0 ****  ****    0  
@<TRIPOS>MOLECULE
LIGAND_00316
    65    69     1     0     0
SMALL
USER_CHARGES
****
Generated from the CSD

@<TRIPOS>ATOM
     1 C1       0.0061  -4.0101 -15.8474   C.ar      1 RES1   0.0000
     2 H2      -0.7396  -4.4550 -16.4974   H         1 RES1   0.0000
     3 C3       1.8830  -2.8363 -14.1949   C.ar      1 RES1   0.0000
     4 H4       2.6156  -2.3652 -13.5479   H         1 RES1   0.0000
     5 C5       0.3267  -4.6347 -14.6458   C.ar      1 RES1   0.0000
     6 C6       0.6154  -2.8280 -16.2293   C.ar      1 RES1   0.0000
     7 H7       0.3659  -2.3536 -17.1724   H         1 RES1   0.0000
     8 C8       1.5378  -2.2707 -15.3891   C.ar      1 RES1   0.0000
     9 C9       1.2767  -4.0248 -13.8314   C.ar      1 RES1   0.0000
    10 H10      1.5547  -4.4884 -12.8917   H         1 RES1   0.0000
    11 C11     -0.3276  -5.9135 -14.2170   C.2       1 RES1   0.0000
    12 F12      2.1371  -1.1052 -15.7556   F         1 RES1   0.0000
    13 N13     -1.1914  -7.9729 -14.1047   N.am      1 RES1   0.0000
    14 C14     -1.3783  -9.4597 -14.2091   C.3       1 RES1   0.0000
    15 H15     -0.8489  -9.8054 -15.0957   H         1 RES1   0.0000
    16 C16     -2.8205  -7.5962 -12.3129   C.3       1 RES1   0.0000
    17 H17     -3.0490  -6.8877 -11.5195   H         1 RES1   0.0000
    18 H18     -3.6210  -7.5505 -13.0484   H         1 RES1   0.0000
    19 H19     -2.8109  -8.5957 -11.8833   H         1 RES1   0.0000
    20 C20     -1.0688  -6.0097 -13.0848   C.2       1 RES1   0.0000
    21 C21     -1.4087  -4.9383 -12.1137   C.ar      1 RES1   0.0000
    22 O22      0.1810  -7.5793 -15.9168   O.2       1 RES1   0.0000
    23 C23     -0.3656  -7.1850 -14.8950   C.2       1 RES1   0.0000
    24 N24     -1.5300  -7.2860 -12.9293   N.3       1 RES1   0.0000
    25 C25     -0.9349 -11.6708 -13.0950   C.3       1 RES1   0.0000
    26 H26     -0.5380 -12.1388 -12.1953   H         1 RES1   0.0000
    27 H27     -0.3889 -12.0342 -13.9643   H         1 RES1   0.0000
    28 C28     -3.0049 -11.3614 -14.4260   C.3       1 RES1   0.0000
    29 H29     -2.5205 -11.7276 -15.3299   H         1 RES1   0.0000
    30 H30     -4.0649 -11.6091 -14.4564   H         1 RES1   0.0000
    31 C31     -2.8473  -9.8501 -14.3523   C.3       1 RES1   0.0000
    32 H32     -3.2467  -9.4056 -15.2627   H         1 RES1   0.0000
    33 H33     -3.4008  -9.4758 -13.4924   H         1 RES1   0.0000
    34 C34     -0.7763 -10.1638 -12.9924   C.3       1 RES1   0.0000
    35 H35     -1.2817  -9.8139 -12.0935   H         1 RES1   0.0000
    36 H36      0.2836  -9.9217 -12.9305   H         1 RES1   0.0000
    37 N37     -2.3829 -12.0156 -13.2374   N.4       1 RES1   1.0000
    38 H38     -2.8746 -11.7123 -12.4029   H         1 RES1   0.0000
    39 H39     -2.4710 -13.0221 -13.3351   H         1 RES1   0.0000
    40 N40     -0.3887  -4.4058 -11.4225   N.ar      1 RES1   0.0000
    41 C41     -2.9021  -3.5162 -10.9716   C.ar      1 RES1   0.0000
    42 H42     -3.9125  -3.1599 -10.8002   H         1 RES1   0.0000
    43 N43      0.3295  -2.9360  -9.8156   N.pl3     1 RES1   0.0000
    44 H44      1.2648  -3.3085  -9.9790   H         1 RES1   0.0000
    45 C45     -2.7122  -4.5088 -11.9118   C.ar      1 RES1   0.0000
    46 H46     -3.5434  -4.9341 -12.4645   H         1 RES1   0.0000
    47 C47     -0.6870  -3.4545 -10.5230   C.ar      1 RES1   0.0000
    48 N48     -1.9089  -2.9693 -10.2586   N.ar      1 RES1   0.0000
    49 C49      0.1709  -1.9146  -8.7806   C.3       1 RES1   0.0000
    50 H50     -0.3608  -1.0533  -9.2139   H         1 RES1   0.0000
    51 C51      1.5008  -1.4351  -8.2331   C.ar      1 RES1   0.0000
    52 C52     -0.6903  -2.5092  -7.6725   C.3       1 RES1   0.0000
    53 H53     -0.4148  -2.0950  -6.7049   H         1 RES1   0.0000
    54 H54     -1.7436  -2.2974  -7.8442   H         1 RES1   0.0000
    55 H55     -0.5652  -3.5890  -7.6263   H         1 RES1   0.0000
    56 C56      3.9479  -0.5687  -7.2226   C.ar      1 RES1   0.0000
    57 H57      4.9013  -0.2312  -6.8297   H         1 RES1   0.0000
    58 C58      2.3726  -2.3256  -7.6230   C.ar      1 RES1   0.0000
    59 H59      2.0975  -3.3717  -7.5382   H         1 RES1   0.0000
    60 C60      1.8750  -0.1016  -8.3262   C.ar      1 RES1   0.0000
    61 H61      1.2090   0.6135  -8.7975   H         1 RES1   0.0000
    62 C62      3.0918   0.3275  -7.8238   C.ar      1 RES1   0.0000
    63 H63      3.3713   1.3727  -7.9043   H         1 RES1   0.0000
    64 C64      3.5892  -1.8948  -7.1219   C.ar      1 RES1   0.0000
    65 H65      4.2611  -2.6034  -6.6491   H         1 RES1   0.0000
@<TRIPOS>BOND
     1     1     5   ar
     2     1     6   ar
     3     1     2    1
     4     3     8   ar
     5     3     9   ar
     6     3     4    1
     7     5     9   ar
     8     5    11    1
     9     6     8   ar
    10     6     7    1
    11     8    12    1
    12     9    10    1
    13    11    20    2
    14    11    23    1
    15    13    14    1
    16    13    23   am
    17    13    24    1
    18    14    31    1
    19    14    34    1
    20    14    15    1
    21    16    24    1
    22    16    17    1
    23    16    18    1
    24    16    19    1
    25    20    21    1
    26    20    24    1
    27    21    40   ar
    28    21    45   ar
    29    22    23    2
    30    25    34    1
    31    25    37    1
    32    25    26    1
    33    25    27    1
    34    28    31    1
    35    28    37    1
    36    28    29    1
    37    28    30    1
    38    31    32    1
    39    31    33    1
    40    34    35    1
    41    34    36    1
    42    37    38    1
    43    37    39    1
    44    40    47   ar
    45    41    45   ar
    46    41    48   ar
    47    41    42    1
    48    43    47    1
    49    43    49    1
    50    43    44    1
    51    45    46    1
    52    47    48   ar
    53    49    51    1
    54    49    52    1
    55    49    50    1
    56    51    58   ar
    57    51    60   ar
    58    52    53    1
    59    52    54    1
    60    52    55    1
    61    56    62   ar
    62    56    64   ar
    63    56    57    1
    64    58    64   ar
    65    58    59    1
    66    60    62   ar
    67    60    61    1
    68    62    63    1
    69    64    65    1
@<TRIPOS>SUBSTRUCTURE
     1 RES1        1 GROUP             0 ****  ****    0  
@<TRIPOS>MOLECULE
LIGAND_00317
    65    69     1     0     0
SMALL
USER_CHARGES
****
Generated from the CSD

@<TRIPOS>ATOM
     1 C1      -2.7631  -4.3551 -16.3843   C.ar      1 RES1   0.0000
     2 H2      -3.3869  -5.2039 -16.6428   H         1 RES1   0.0000
     3 C3      -1.2124  -2.1668 -15.7219   C.ar      1 RES1   0.0000
     4 H4      -0.6125  -1.3008 -15.4624   H         1 RES1   0.0000
     5 C5      -1.8085  -4.4880 -15.3803   C.ar      1 RES1   0.0000
     6 C6      -2.9380  -3.1589 -17.0575   C.ar      1 RES1   0.0000
     7 H7      -3.6782  -3.0677 -17.8453   H         1 RES1   0.0000
     8 C8      -2.1575  -2.0941 -16.7051   C.ar      1 RES1   0.0000
     9 C9      -1.0383  -3.3718 -15.0661   C.ar      1 RES1   0.0000
    10 H10     -0.2809  -3.4429 -14.2938   H         1 RES1   0.0000
    11 C11     -1.6101  -5.7761 -14.6397   C.2       1 RES1   0.0000
    12 F12     -2.3278  -0.9130 -17.3593   F         1 RES1   0.0000
    13 N13     -1.2406  -7.9410 -14.1570   N.am      1 RES1   0.0000
    14 C14     -1.5106  -9.4109 -14.3092   C.3       1 RES1   0.0000
    15 H15     -1.2171  -9.7059 -15.3156   H         1 RES1   0.0000
    16 C16     -0.8997  -7.6987 -11.7768   C.3       1 RES1   0.0000
    17 H17     -1.4822  -8.4146 -11.2005   H         1 RES1   0.0000
    18 H18      0.0444  -8.1684 -12.0450   H         1 RES1   0.0000
    19 H19     -0.6845  -6.8442 -11.1387   H         1 RES1   0.0000
    20 C20     -1.7513  -5.9390 -13.3057   C.2       1 RES1   0.0000
    21 C21     -2.0254  -4.9138 -12.2663   C.ar      1 RES1   0.0000
    22 O22     -1.1751  -7.3947 -16.3880   O.2       1 RES1   0.0000
    23 C23     -1.3018  -7.0544 -15.2191   C.2       1 RES1   0.0000
    24 N24     -1.6302  -7.2794 -12.9734   N.3       1 RES1   0.0000
    25 C25     -0.9160 -11.7077 -13.4737   C.3       1 RES1   0.0000
    26 H26     -0.3413 -12.2498 -12.7242   H         1 RES1   0.0000
    27 H27     -0.6031 -12.0220 -14.4683   H         1 RES1   0.0000
    28 C28     -3.2233 -11.2475 -14.2588   C.3       1 RES1   0.0000
    29 H29     -2.9785 -11.5605 -15.2727   H         1 RES1   0.0000
    30 H30     -4.2710 -11.4637 -14.0552   H         1 RES1   0.0000
    31 C31     -2.9880  -9.7502 -14.1281   C.3       1 RES1   0.0000
    32 H32     -3.5686  -9.2307 -14.8889   H         1 RES1   0.0000
    33 H33     -3.3098  -9.4240 -13.1402   H         1 RES1   0.0000
    34 C34     -0.6731 -10.2168 -13.3154   C.3       1 RES1   0.0000
    35 H35     -0.9402  -9.9191 -12.3025   H         1 RES1   0.0000
    36 H36      0.3816 -10.0085 -13.4888   H         1 RES1   0.0000
    37 N37     -2.3708 -12.0022 -13.2938   N.4       1 RES1   1.0000
    38 H38     -2.6415 -11.7467 -12.3495   H         1 RES1   0.0000
    39 H39     -2.5225 -12.9962 -13.4320   H         1 RES1   0.0000
    40 N40     -0.9580  -4.3300 -11.6994   N.ar      1 RES1   0.0000
    41 C41     -3.4397  -3.6190 -10.8951   C.ar      1 RES1   0.0000
    42 H42     -4.4387  -3.3344 -10.5815   H         1 RES1   0.0000
    43 N43     -0.1258  -2.8511 -10.1571   N.pl3     1 RES1   0.0000
    44 H44     -0.2921  -2.1250  -9.4604   H         1 RES1   0.0000
    45 C45     -3.3148  -4.5762 -11.8818   C.ar      1 RES1   0.0000
    46 H46     -4.1838  -5.0436 -12.3329   H         1 RES1   0.0000
    47 C47     -1.1929  -3.4204 -10.7400   C.ar      1 RES1   0.0000
    48 N48     -2.3968  -3.0232 -10.3026   N.ar      1 RES1   0.0000
    49 C49      1.2607  -3.1621 -10.5038   C.3       1 RES1   0.0000
    50 H50      1.3096  -3.4063 -11.5763   H         1 RES1   0.0000
    51 C51      1.8038  -4.3379  -9.7158   C.ar      1 RES1   0.0000
    52 C52      2.0921  -1.9094 -10.2529   C.3       1 RES1   0.0000
    53 H53      3.1321  -2.0750 -10.5262   H         1 RES1   0.0000
    54 H54      1.7174  -1.0720 -10.8377   H         1 RES1   0.0000
    55 H55      2.0588  -1.6304  -9.2019   H         1 RES1   0.0000
    56 C56      2.8152  -6.4970  -8.2751   C.ar      1 RES1   0.0000
    57 H57      3.2092  -7.3375  -7.7133   H         1 RES1   0.0000
    58 C58      3.1053  -4.7761  -9.9131   C.ar      1 RES1   0.0000
    59 H59      3.7364  -4.2720 -10.6375   H         1 RES1   0.0000
    60 C60      1.0159  -5.0018  -8.7855   C.ar      1 RES1   0.0000
    61 H61     -0.0056  -4.6783  -8.6153   H         1 RES1   0.0000
    62 C62      1.5202  -6.0746  -8.0698   C.ar      1 RES1   0.0000
    63 H63      0.8930  -6.5836  -7.3454   H         1 RES1   0.0000
    64 C64      3.6080  -5.8485  -9.1961   C.ar      1 RES1   0.0000
    65 H65      4.6285  -6.1784  -9.3601   H         1 RES1   0.0000
@<TRIPOS>BOND
     1     1     5   ar
     2     1     6   ar
     3     1     2    1
     4     3     8   ar
     5     3     9   ar
     6     3     4    1
     7     5     9   ar
     8     5    11    1
     9     6     8   ar
    10     6     7    1
    11     8    12    1
    12     9    10    1
    13    11    20    2
    14    11    23    1
    15    13    14    1
    16    13    23   am
    17    13    24    1
    18    14    31    1
    19    14    34    1
    20    14    15    1
    21    16    24    1
    22    16    17    1
    23    16    18    1
    24    16    19    1
    25    20    21    1
    26    20    24    1
    27    21    40   ar
    28    21    45   ar
    29    22    23    2
    30    25    34    1
    31    25    37    1
    32    25    26    1
    33    25    27    1
    34    28    31    1
    35    28    37    1
    36    28    29    1
    37    28    30    1
    38    31    32    1
    39    31    33    1
    40    34    35    1
    41    34    36    1
    42    37    38    1
    43    37    39    1
    44    40    47   ar
    45    41    45   ar
    46    41    48   ar
    47    41    42    1
    48    43    47    1
    49    43    49    1
    50    43    44    1
    51    45    46    1
    52    47    48   ar
    53    49    51    1
    54    49    52    1
    55    49    50    1
    56    51    58   ar
    57    51    60   ar
    58    52    53    1
    59    52    54    1
    60    52    55    1
    61    56    62   ar
    62    56    64   ar
    63    56    57    1
    64    58    64   ar
    65    58    59    1
    66    60    62   ar
    67    60    61    1
    68    62    63    1
    69    64    65    1
@<TRIPOS>SUBSTRUCTURE
     1 RES1        1 GROUP             0 ****  ****    0  
@<TRIPOS>MOLECULE
LIGAND_00318
    65    69     1     0     0
SMALL
USER_CHARGES
****
Generated from the CSD

@<TRIPOS>ATOM
     1 C1      -3.0248  -3.8117 -15.3691   C.ar      1 RES1   0.0000
     2 H2      -3.8579  -4.2218 -14.8086   H         1 RES1   0.0000
     3 C3      -0.9094  -2.7260 -16.7756   C.ar      1 RES1   0.0000
     4 H4      -0.0813  -2.2894 -17.3241   H         1 RES1   0.0000
     5 C5      -1.8085  -4.4880 -15.3803   C.ar      1 RES1   0.0000
     6 C6      -3.1929  -2.6215 -16.0545   C.ar      1 RES1   0.0000
     7 H7      -4.1477  -2.1065 -16.0477   H         1 RES1   0.0000
     8 C8      -2.1271  -2.1087 -16.7387   C.ar      1 RES1   0.0000
     9 C9      -0.7584  -3.9218 -16.0977   C.ar      1 RES1   0.0000
    10 H10      0.2005  -4.4262 -16.1329   H         1 RES1   0.0000
    11 C11     -1.6101  -5.7761 -14.6397   C.2       1 RES1   0.0000
    12 F12     -2.2837  -0.9357 -17.4105   F         1 RES1   0.0000
    13 N13     -1.2406  -7.9410 -14.1570   N.am      1 RES1   0.0000
    14 C14     -1.5106  -9.4109 -14.3092   C.3       1 RES1   0.0000
    15 H15     -1.2171  -9.7059 -15.3156   H         1 RES1   0.0000
    16 C16     -0.8997  -7.6987 -11.7768   C.3       1 RES1   0.0000
    17 H17     -1.4822  -8.4146 -11.2005   H         1 RES1   0.0000
    18 H18      0.0444  -8.1684 -12.0450   H         1 RES1   0.0000
    19 H19     -0.6845  -6.8442 -11.1387   H         1 RES1   0.0000
    20 C20     -1.7513  -5.9390 -13.3057   C.2       1 RES1   0.0000
    21 C21     -2.0254  -4.9138 -12.2663   C.ar      1 RES1   0.0000
    22 O22     -1.1751  -7.3947 -16.3880   O.2       1 RES1   0.0000
    23 C23     -1.3018  -7.0544 -15.2191   C.2       1 RES1   0.0000
    24 N24     -1.6302  -7.2794 -12.9734   N.3       1 RES1   0.0000
    25 C25     -0.9160 -11.7077 -13.4737   C.3       1 RES1   0.0000
    26 H26     -0.3413 -12.2498 -12.7242   H         1 RES1   0.0000
    27 H27     -0.6031 -12.0220 -14.4683   H         1 RES1   0.0000
    28 C28     -3.2233 -11.2475 -14.2588   C.3       1 RES1   0.0000
    29 H29     -2.9785 -11.5605 -15.2727   H         1 RES1   0.0000
    30 H30     -4.2710 -11.4637 -14.0552   H         1 RES1   0.0000
    31 C31     -2.9880  -9.7502 -14.1281   C.3       1 RES1   0.0000
    32 H32     -3.5686  -9.2307 -14.8889   H         1 RES1   0.0000
    33 H33     -3.3098  -9.4240 -13.1402   H         1 RES1   0.0000
    34 C34     -0.6731 -10.2168 -13.3154   C.3       1 RES1   0.0000
    35 H35     -0.9402  -9.9191 -12.3025   H         1 RES1   0.0000
    36 H36      0.3816 -10.0085 -13.4888   H         1 RES1   0.0000
    37 N37     -2.3708 -12.0022 -13.2938   N.4       1 RES1   1.0000
    38 H38     -2.6415 -11.7467 -12.3495   H         1 RES1   0.0000
    39 H39     -2.5225 -12.9962 -13.4320   H         1 RES1   0.0000
    40 N40     -0.9580  -4.3300 -11.6994   N.ar      1 RES1   0.0000
    41 C41     -3.4397  -3.6190 -10.8951   C.ar      1 RES1   0.0000
    42 H42     -4.4387  -3.3344 -10.5815   H         1 RES1   0.0000
    43 N43     -0.1258  -2.8511 -10.1571   N.pl3     1 RES1   0.0000
    44 H44     -0.2921  -2.1250  -9.4604   H         1 RES1   0.0000
    45 C45     -3.3148  -4.5762 -11.8818   C.ar      1 RES1   0.0000
    46 H46     -4.1838  -5.0436 -12.3329   H         1 RES1   0.0000
    47 C47     -1.1929  -3.4204 -10.7400   C.ar      1 RES1   0.0000
    48 N48     -2.3968  -3.0232 -10.3026   N.ar      1 RES1   0.0000
    49 C49      1.2607  -3.1621 -10.5038   C.3       1 RES1   0.0000
    50 H50      1.3096  -3.4063 -11.5763   H         1 RES1   0.0000
    51 C51      1.8038  -4.3379  -9.7158   C.ar      1 RES1   0.0000
    52 C52      2.0921  -1.9094 -10.2529   C.3       1 RES1   0.0000
    53 H53      3.1321  -2.0750 -10.5262   H         1 RES1   0.0000
    54 H54      1.7174  -1.0720 -10.8377   H         1 RES1   0.0000
    55 H55      2.0588  -1.6304  -9.2019   H         1 RES1   0.0000
    56 C56      2.8152  -6.4970  -8.2751   C.ar      1 RES1   0.0000
    57 H57      3.2092  -7.3375  -7.7133   H         1 RES1   0.0000
    58 C58      3.1053  -4.7761  -9.9131   C.ar      1 RES1   0.0000
    59 H59      3.7364  -4.2720 -10.6375   H         1 RES1   0.0000
    60 C60      1.0159  -5.0018  -8.7855   C.ar      1 RES1   0.0000
    61 H61     -0.0056  -4.6783  -8.6153   H         1 RES1   0.0000
    62 C62      1.5202  -6.0746  -8.0698   C.ar      1 RES1   0.0000
    63 H63      0.8930  -6.5836  -7.3454   H         1 RES1   0.0000
    64 C64      3.6080  -5.8485  -9.1961   C.ar      1 RES1   0.0000
    65 H65      4.6285  -6.1784  -9.3601   H         1 RES1   0.0000
@<TRIPOS>BOND
     1     1     5   ar
     2     1     6   ar
     3     1     2    1
     4     3     8   ar
     5     3     9   ar
     6     3     4    1
     7     5     9   ar
     8     5    11    1
     9     6     8   ar
    10     6     7    1
    11     8    12    1
    12     9    10    1
    13    11    20    2
    14    11    23    1
    15    13    14    1
    16    13    23   am
    17    13    24    1
    18    14    31    1
    19    14    34    1
    20    14    15    1
    21    16    24    1
    22    16    17    1
    23    16    18    1
    24    16    19    1
    25    20    21    1
    26    20    24    1
    27    21    40   ar
    28    21    45   ar
    29    22    23    2
    30    25    34    1
    31    25    37    1
    32    25    26    1
    33    25    27    1
    34    28    31    1
    35    28    37    1
    36    28    29    1
    37    28    30    1
    38    31    32    1
    39    31    33    1
    40    34    35    1
    41    34    36    1
    42    37    38    1
    43    37    39    1
    44    40    47   ar
    45    41    45   ar
    46    41    48   ar
    47    41    42    1
    48    43    47    1
    49    43    49    1
    50    43    44    1
    51    45    46    1
    52    47    48   ar
    53    49    51    1
    54    49    52    1
    55    49    50    1
    56    51    58   ar
    57    51    60   ar
    58    52    53    1
    59    52    54    1
    60    52    55    1
    61    56    62   ar
    62    56    64   ar
    63    56    57    1
    64    58    64   ar
    65    58    59    1
    66    60    62   ar
    67    60    61    1
    68    62    63    1
    69    64    65    1
@<TRIPOS>SUBSTRUCTURE
     1 RES1        1 GROUP             0 ****  ****    0  
@<TRIPOS>MOLECULE
LIGAND_00319
    65    69     1     0     0
SMALL
USER_CHARGES
****
Generated from the CSD

@<TRIPOS>ATOM
     1 C1      -2.7631  -4.3551 -16.3843   C.ar      1 RES1   0.0000
     2 H2      -3.3869  -5.2039 -16.6428   H         1 RES1   0.0000
     3 C3      -1.2124  -2.1668 -15.7219   C.ar      1 RES1   0.0000
     4 H4      -0.6125  -1.3008 -15.4624   H         1 RES1   0.0000
     5 C5      -1.8085  -4.4880 -15.3803   C.ar      1 RES1   0.0000
     6 C6      -2.9380  -3.1589 -17.0575   C.ar      1 RES1   0.0000
     7 H7      -3.6782  -3.0677 -17.8453   H         1 RES1   0.0000
     8 C8      -2.1575  -2.0941 -16.7051   C.ar      1 RES1   0.0000
     9 C9      -1.0383  -3.3718 -15.0661   C.ar      1 RES1   0.0000
    10 H10     -0.2809  -3.4429 -14.2938   H         1 RES1   0.0000
    11 C11     -1.6101  -5.7761 -14.6397   C.2       1 RES1   0.0000
    12 F12     -2.3278  -0.9130 -17.3593   F         1 RES1   0.0000
    13 N13     -1.2406  -7.9410 -14.1570   N.am      1 RES1   0.0000
    14 C14     -1.5106  -9.4109 -14.3092   C.3       1 RES1   0.0000
    15 H15     -1.2171  -9.7059 -15.3156   H         1 RES1   0.0000
    16 C16     -0.8997  -7.6987 -11.7768   C.3       1 RES1   0.0000
    17 H17     -1.4822  -8.4146 -11.2005   H         1 RES1   0.0000
    18 H18      0.0444  -8.1684 -12.0450   H         1 RES1   0.0000
    19 H19     -0.6845  -6.8442 -11.1387   H         1 RES1   0.0000
    20 C20     -1.7513  -5.9390 -13.3057   C.2       1 RES1   0.0000
    21 C21     -2.0254  -4.9138 -12.2663   C.ar      1 RES1   0.0000
    22 O22     -1.1751  -7.3947 -16.3880   O.2       1 RES1   0.0000
    23 C23     -1.3018  -7.0544 -15.2191   C.2       1 RES1   0.0000
    24 N24     -1.6302  -7.2794 -12.9734   N.3       1 RES1   0.0000
    25 C25     -0.9160 -11.7077 -13.4737   C.3       1 RES1   0.0000
    26 H26     -0.3413 -12.2498 -12.7242   H         1 RES1   0.0000
    27 H27     -0.6031 -12.0220 -14.4683   H         1 RES1   0.0000
    28 C28     -3.2233 -11.2475 -14.2588   C.3       1 RES1   0.0000
    29 H29     -2.9785 -11.5605 -15.2727   H         1 RES1   0.0000
    30 H30     -4.2710 -11.4637 -14.0552   H         1 RES1   0.0000
    31 C31     -2.9880  -9.7502 -14.1281   C.3       1 RES1   0.0000
    32 H32     -3.5686  -9.2307 -14.8889   H         1 RES1   0.0000
    33 H33     -3.3098  -9.4240 -13.1402   H         1 RES1   0.0000
    34 C34     -0.6731 -10.2168 -13.3154   C.3       1 RES1   0.0000
    35 H35     -0.9402  -9.9191 -12.3025   H         1 RES1   0.0000
    36 H36      0.3816 -10.0085 -13.4888   H         1 RES1   0.0000
    37 N37     -2.3708 -12.0022 -13.2938   N.4       1 RES1   1.0000
    38 H38     -2.6415 -11.7467 -12.3495   H         1 RES1   0.0000
    39 H39     -2.5225 -12.9962 -13.4320   H         1 RES1   0.0000
    40 N40     -3.3153  -4.6658 -11.9899   N.ar      1 RES1   0.0000
    41 C41     -1.3914  -3.2906 -10.6788   C.ar      1 RES1   0.0000
    42 H42     -0.6140  -2.7468 -10.1523   H         1 RES1   0.0000
    43 N43     -4.8658  -3.4583 -10.8082   N.pl3     1 RES1   0.0000
    44 H44     -5.0757  -2.7775 -10.0784   H         1 RES1   0.0000
    45 C45     -1.0092  -4.2301 -11.6151   C.ar      1 RES1   0.0000
    46 H46      0.0362  -4.4223 -11.8328   H         1 RES1   0.0000
    47 C47     -3.5758  -3.7226 -11.0704   C.ar      1 RES1   0.0000
    48 N48     -2.6681  -3.0123 -10.3849   N.ar      1 RES1   0.0000
    49 C49     -5.9892  -4.1317 -11.4595   C.3       1 RES1   0.0000
    50 H50     -5.6955  -5.1684 -11.6859   H         1 RES1   0.0000
    51 C51     -6.3992  -3.4531 -12.7517   C.ar      1 RES1   0.0000
    52 C52     -7.1478  -4.1605 -10.4695   C.3       1 RES1   0.0000
    53 H53     -8.0042  -4.6815 -10.8924   H         1 RES1   0.0000
    54 H54     -6.8608  -4.6696  -9.5518   H         1 RES1   0.0000
    55 H55     -7.4592  -3.1501 -10.2131   H         1 RES1   0.0000
    56 C56     -7.1639  -2.2167 -15.1281   C.ar      1 RES1   0.0000
    57 H57     -7.4621  -1.7347 -16.0532   H         1 RES1   0.0000
    58 C58     -7.4496  -3.9544 -13.5070   C.ar      1 RES1   0.0000
    59 H59     -7.9790  -4.8387 -13.1681   H         1 RES1   0.0000
    60 C60     -5.7362  -2.3224 -13.2087   C.ar      1 RES1   0.0000
    61 H61     -4.9106  -1.9132 -12.6360   H         1 RES1   0.0000
    62 C62     -6.1176  -1.7087 -14.3899   C.ar      1 RES1   0.0000
    63 H63     -5.5907  -0.8252 -14.7345   H         1 RES1   0.0000
    64 C64     -7.8301  -3.3390 -14.6874   C.ar      1 RES1   0.0000
    65 H65     -8.6546  -3.7417 -15.2662   H         1 RES1   0.0000
@<TRIPOS>BOND
     1     1     5   ar
     2     1     6   ar
     3     1     2    1
     4     3     8   ar
     5     3     9   ar
     6     3     4    1
     7     5     9   ar
     8     5    11    1
     9     6     8   ar
    10     6     7    1
    11     8    12    1
    12     9    10    1
    13    11    20    2
    14    11    23    1
    15    13    14    1
    16    13    23   am
    17    13    24    1
    18    14    31    1
    19    14    34    1
    20    14    15    1
    21    16    24    1
    22    16    17    1
    23    16    18    1
    24    16    19    1
    25    20    21    1
    26    20    24    1
    27    21    40   ar
    28    21    45   ar
    29    22    23    2
    30    25    34    1
    31    25    37    1
    32    25    26    1
    33    25    27    1
    34    28    31    1
    35    28    37    1
    36    28    29    1
    37    28    30    1
    38    31    32    1
    39    31    33    1
    40    34    35    1
    41    34    36    1
    42    37    38    1
    43    37    39    1
    44    40    47   ar
    45    41    45   ar
    46    41    48   ar
    47    41    42    1
    48    43    47    1
    49    43    49    1
    50    43    44    1
    51    45    46    1
    52    47    48   ar
    53    49    51    1
    54    49    52    1
    55    49    50    1
    56    51    58   ar
    57    51    60   ar
    58    52    53    1
    59    52    54    1
    60    52    55    1
    61    56    62   ar
    62    56    64   ar
    63    56    57    1
    64    58    64   ar
    65    58    59    1
    66    60    62   ar
    67    60    61    1
    68    62    63    1
    69    64    65    1
@<TRIPOS>SUBSTRUCTURE
     1 RES1        1 GROUP             0 ****  ****    0  
@<TRIPOS>MOLECULE
LIGAND_00320
    65    69     1     0     0
SMALL
USER_CHARGES
****
Generated from the CSD

@<TRIPOS>ATOM
     1 C1       1.1044  -5.7580 -11.0918   C.ar      1 RES1   0.0000
     2 H2       1.0261  -6.8108 -10.8432   H         1 RES1   0.0000
     3 C3       1.3495  -3.0780 -11.7158   C.ar      1 RES1   0.0000
     4 H4       1.4564  -2.0255 -11.9570   H         1 RES1   0.0000
     5 C5       0.5783  -5.2981 -12.2954   C.ar      1 RES1   0.0000
     6 C6       1.7319  -4.9000 -10.2060   C.ar      1 RES1   0.0000
     7 H7       2.1304  -5.2661  -9.2657   H         1 RES1   0.0000
     8 C8       1.8397  -3.5805 -10.5443   C.ar      1 RES1   0.0000
     9 C9       0.7126  -3.9434 -12.5862   C.ar      1 RES1   0.0000
    10 H10      0.3079  -3.5509 -13.5121   H         1 RES1   0.0000
    11 C11     -0.1008  -6.2161 -13.2667   C.2       1 RES1   0.0000
    12 F12      2.4605  -2.7319  -9.6803   F         1 RES1   0.0000
    13 N13     -1.2787  -7.9141 -14.1530   N.am      1 RES1   0.0000
    14 C14     -1.6004  -9.3708 -14.3296   C.3       1 RES1   0.0000
    15 H15     -1.3554  -9.6492 -15.3534   H         1 RES1   0.0000
    16 C16     -1.4884  -7.0396 -16.3962   C.3       1 RES1   0.0000
    17 H17     -0.8730  -7.0076 -17.2929   H         1 RES1   0.0000
    18 H18     -2.1898  -7.8653 -16.4963   H         1 RES1   0.0000
    19 H19     -2.0586  -6.1146 -16.3424   H         1 RES1   0.0000
    20 C20     -0.0279  -6.1202 -14.6126   C.2       1 RES1   0.0000
    21 C21      0.6269  -5.0726 -15.4374   C.ar      1 RES1   0.0000
    22 O22     -1.1370  -7.8930 -11.8596   O.2       1 RES1   0.0000
    23 C23     -0.8832  -7.3761 -12.9398   C.2       1 RES1   0.0000
    24 N24     -0.6578  -7.2050 -15.2029   N.3       1 RES1   0.0000
    25 C25     -1.0468 -11.7049 -13.5732   C.3       1 RES1   0.0000
    26 H26     -0.4611 -12.2830 -12.8600   H         1 RES1   0.0000
    27 H27     -0.7825 -12.0036 -14.5865   H         1 RES1   0.0000
    28 C28     -3.3670 -11.1548 -14.2559   C.3       1 RES1   0.0000
    29 H29     -3.1714 -11.4496 -15.2858   H         1 RES1   0.0000
    30 H30     -4.4124 -11.3439 -14.0165   H         1 RES1   0.0000
    31 C31     -3.0797  -9.6692 -14.0987   C.3       1 RES1   0.0000
    32 H32     -3.6726  -9.1132 -14.8235   H         1 RES1   0.0000
    33 H33     -3.3528  -9.3582 -13.0914   H         1 RES1   0.0000
    34 C34     -0.7512 -10.2266 -13.3890   C.3       1 RES1   0.0000
    35 H35     -0.9696  -9.9464 -12.3595   H         1 RES1   0.0000
    36 H36      0.3021 -10.0463 -13.5986   H         1 RES1   0.0000
    37 N37     -2.5022 -11.9592 -13.3434   N.4       1 RES1   1.0000
    38 H38     -2.7282 -11.7193 -12.3834   H         1 RES1   0.0000
    39 H39     -2.6903 -12.9444 -13.4992   H         1 RES1   0.0000
    40 N40      1.9307  -5.2446 -15.7060   N.ar      1 RES1   0.0000
    41 C41      0.6624  -3.0499 -16.6475   C.ar      1 RES1   0.0000
    42 H42      0.1456  -2.1746 -17.0270   H         1 RES1   0.0000
    43 N43      3.8487  -4.4508 -16.6805   N.pl3     1 RES1   0.0000
    44 H44      4.3225  -5.2496 -16.2590   H         1 RES1   0.0000
    45 C45     -0.0596  -3.9606 -15.9027   C.ar      1 RES1   0.0000
    46 H46     -1.1130  -3.8119 -15.6895   H         1 RES1   0.0000
    47 C47      2.5396  -4.2909 -16.4291   C.ar      1 RES1   0.0000
    48 N48      1.9652  -3.1860 -16.9266   N.ar      1 RES1   0.0000
    49 C49      4.6519  -3.5168 -17.4692   C.3       1 RES1   0.0000
    50 H50      4.6357  -2.5332 -16.9747   H         1 RES1   0.0000
    51 C51      4.1282  -3.3551 -18.8828   C.ar      1 RES1   0.0000
    52 C52      6.0862  -4.0327 -17.4769   C.3       1 RES1   0.0000
    53 H53      6.7373  -3.3554 -18.0256   H         1 RES1   0.0000
    54 H54      6.4703  -4.1250 -16.4632   H         1 RES1   0.0000
    55 H55      6.1400  -5.0111 -17.9498   H         1 RES1   0.0000
    56 C56      3.1604  -3.0725 -21.4797   C.ar      1 RES1   0.0000
    57 H57      2.7829  -2.9620 -22.4908   H         1 RES1   0.0000
    58 C58      3.4704  -4.4014 -19.5133   C.ar      1 RES1   0.0000
    59 H59      3.3318  -5.3409 -18.9886   H         1 RES1   0.0000
    60 C60      4.2954  -2.1646 -19.5767   C.ar      1 RES1   0.0000
    61 H61      4.8082  -1.3330 -19.1050   H         1 RES1   0.0000
    62 C62      3.8134  -2.0254 -20.8674   C.ar      1 RES1   0.0000
    63 H63      3.9508  -1.0888 -21.3974   H         1 RES1   0.0000
    64 C64      2.9885  -4.2602 -20.8035   C.ar      1 RES1   0.0000
    65 H65      2.4746  -5.0868 -21.2827   H         1 RES1   0.0000
@<TRIPOS>BOND
     1     1     5   ar
     2     1     6   ar
     3     1     2    1
     4     3     8   ar
     5     3     9   ar
     6     3     4    1
     7     5     9   ar
     8     5    11    1
     9     6     8   ar
    10     6     7    1
    11     8    12    1
    12     9    10    1
    13    11    20    2
    14    11    23    1
    15    13    14    1
    16    13    23   am
    17    13    24    1
    18    14    31    1
    19    14    34    1
    20    14    15    1
    21    16    24    1
    22    16    17    1
    23    16    18    1
    24    16    19    1
    25    20    21    1
    26    20    24    1
    27    21    40   ar
    28    21    45   ar
    29    22    23    2
    30    25    34    1
    31    25    37    1
    32    25    26    1
    33    25    27    1
    34    28    31    1
    35    28    37    1
    36    28    29    1
    37    28    30    1
    38    31    32    1
    39    31    33    1
    40    34    35    1
    41    34    36    1
    42    37    38    1
    43    37    39    1
    44    40    47   ar
    45    41    45   ar
    46    41    48   ar
    47    41    42    1
    48    43    47    1
    49    43    49    1
    50    43    44    1
    51    45    46    1
    52    47    48   ar
    53    49    51    1
    54    49    52    1
    55    49    50    1
    56    51    58   ar
    57    51    60   ar
    58    52    53    1
    59    52    54    1
    60    52    55    1
    61    56    62   ar
    62    56    64   ar
    63    56    57    1
    64    58    64   ar
    65    58    59    1
    66    60    62   ar
    67    60    61    1
    68    62    63    1
    69    64    65    1
@<TRIPOS>SUBSTRUCTURE
     1 RES1        1 GROUP             0 ****  ****    0  
@<TRIPOS>MOLECULE
LIGAND_00321
    65    69     1     0     0
SMALL
USER_CHARGES
****
Generated from the CSD

@<TRIPOS>ATOM
     1 C1      -2.4792  -4.2529 -16.4101   C.ar      1 RES1   0.0000
     2 H2      -3.1361  -5.0584 -16.7202   H         1 RES1   0.0000
     3 C3      -0.8426  -2.1729 -15.6183   C.ar      1 RES1   0.0000
     4 H4      -0.2085  -1.3489 -15.3084   H         1 RES1   0.0000
     5 C5      -1.5964  -4.4580 -15.3540   C.ar      1 RES1   0.0000
     6 C6      -2.5411  -3.0389 -17.0712   C.ar      1 RES1   0.0000
     7 H7      -3.2258  -2.8916 -17.8997   H         1 RES1   0.0000
     8 C8      -1.7207  -2.0288 -16.6544   C.ar      1 RES1   0.0000
     9 C9      -0.7809  -3.3954 -14.9749   C.ar      1 RES1   0.0000
    10 H10     -0.0770  -3.5235 -14.1606   H         1 RES1   0.0000
    11 C11     -1.5206  -5.7662 -14.6259   C.2       1 RES1   0.0000
    12 F12     -1.7801  -0.8303 -17.2963   F         1 RES1   0.0000
    13 N13     -1.3114  -7.9562 -14.1607   N.am      1 RES1   0.0000
    14 C14     -1.6595  -9.4046 -14.3547   C.3       1 RES1   0.0000
    15 H15     -1.3267  -9.7019 -15.3481   H         1 RES1   0.0000
    16 C16     -1.1004  -7.7689 -11.7605   C.3       1 RES1   0.0000
    17 H17     -1.7556  -8.4614 -11.2362   H         1 RES1   0.0000
    18 H18     -0.1682  -8.2853 -11.9802   H         1 RES1   0.0000
    19 H19     -0.8794  -6.9388 -11.0928   H         1 RES1   0.0000
    20 C20     -1.7513  -5.9390 -13.3057   C.2       1 RES1   0.0000
    21 C21     -2.0254  -4.9138 -12.2663   C.ar      1 RES1   0.0000
    22 O22     -1.0792  -7.3834 -16.3739   O.2       1 RES1   0.0000
    23 C23     -1.2553  -7.0526 -15.2086   C.2       1 RES1   0.0000
    24 N24     -1.7311  -7.2889 -12.9907   N.3       1 RES1   0.0000
    25 C25     -1.2522 -11.7453 -13.5290   C.3       1 RES1   0.0000
    26 H26     -0.7551 -12.3324 -12.7581   H         1 RES1   0.0000
    27 H27     -0.9020 -12.0633 -14.5098   H         1 RES1   0.0000
    28 C28     -3.4789 -11.1344 -14.4348   C.3       1 RES1   0.0000
    29 H29     -3.1953 -11.4467 -15.4388   H         1 RES1   0.0000
    30 H30     -4.5477 -11.2896 -14.2947   H         1 RES1   0.0000
    31 C31     -3.1625  -9.6563 -14.2637   C.3       1 RES1   0.0000
    32 H32     -3.6663  -9.0912 -15.0465   H         1 RES1   0.0000
    33 H33     -3.5206  -9.3258 -13.2898   H         1 RES1   0.0000
    34 C34     -0.9303 -10.2744 -13.3300   C.3       1 RES1   0.0000
    35 H35     -1.2370  -9.9761 -12.3286   H         1 RES1   0.0000
    36 H36      0.1432 -10.1279 -13.4397   H         1 RES1   0.0000
    37 N37     -2.7300 -11.9536 -13.4370   N.4       1 RES1   1.0000
    38 H38     -3.0389 -11.6962 -12.5051   H         1 RES1   0.0000
    39 H39     -2.9325 -12.9345 -13.6017   H         1 RES1   0.0000
    40 N40     -1.1072  -4.7783 -11.2966   N.ar      1 RES1   0.0000
    41 C41     -3.3226  -3.2287 -11.2491   C.ar      1 RES1   0.0000
    42 H42     -4.2112  -2.6061 -11.2397   H         1 RES1   0.0000
    43 N43     -0.4495  -3.7510  -9.3549   N.pl3     1 RES1   0.0000
    44 H44     -0.6254  -3.0616  -8.6241   H         1 RES1   0.0000
    45 C45     -3.1749  -4.1373 -12.2777   C.ar      1 RES1   0.0000
    46 H46     -3.9235  -4.2406 -13.0562   H         1 RES1   0.0000
    47 C47     -1.3567  -3.8727 -10.3371   C.ar      1 RES1   0.0000
    48 N48     -2.4311  -3.0737 -10.2618   N.ar      1 RES1   0.0000
    49 C49      0.8057  -4.5002  -9.3010   C.3       1 RES1   0.0000
    50 H50      0.5807  -5.5728  -9.4074   H         1 RES1   0.0000
    51 C51      1.5486  -4.2900  -7.9963   C.ar      1 RES1   0.0000
    52 C52      1.6566  -4.0627 -10.4874   C.3       1 RES1   0.0000
    53 H53      2.6424  -4.5213 -10.4457   H         1 RES1   0.0000
    54 H54      1.1888  -4.3499 -11.4268   H         1 RES1   0.0000
    55 H55      1.7859  -2.9824 -10.4898   H         1 RES1   0.0000
    56 C56      2.9258  -3.8977  -5.6067   C.ar      1 RES1   0.0000
    57 H57      3.4617  -3.7442  -4.6759   H         1 RES1   0.0000
    58 C58      2.8201  -3.7346  -7.9923   C.ar      1 RES1   0.0000
    59 H59      3.2835  -3.4503  -8.9313   H         1 RES1   0.0000
    60 C60      0.9793  -4.6481  -6.7820   C.ar      1 RES1   0.0000
    61 H61     -0.0132  -5.0858  -6.7602   H         1 RES1   0.0000
    62 C62      1.6648  -4.4521  -5.5950   C.ar      1 RES1   0.0000
    63 H63      1.2070  -4.7363  -4.6533   H         1 RES1   0.0000
    64 C64      3.5038  -3.5387  -6.8045   C.ar      1 RES1   0.0000
    65 H65      4.4967  -3.1017  -6.8174   H         1 RES1   0.0000
@<TRIPOS>BOND
     1     1     5   ar
     2     1     6   ar
     3     1     2    1
     4     3     8   ar
     5     3     9   ar
     6     3     4    1
     7     5     9   ar
     8     5    11    1
     9     6     8   ar
    10     6     7    1
    11     8    12    1
    12     9    10    1
    13    11    20    2
    14    11    23    1
    15    13    14    1
    16    13    23   am
    17    13    24    1
    18    14    31    1
    19    14    34    1
    20    14    15    1
    21    16    24    1
    22    16    17    1
    23    16    18    1
    24    16    19    1
    25    20    21    1
    26    20    24    1
    27    21    40   ar
    28    21    45   ar
    29    22    23    2
    30    25    34    1
    31    25    37    1
    32    25    26    1
    33    25    27    1
    34    28    31    1
    35    28    37    1
    36    28    29    1
    37    28    30    1
    38    31    32    1
    39    31    33    1
    40    34    35    1
    41    34    36    1
    42    37    38    1
    43    37    39    1
    44    40    47   ar
    45    41    45   ar
    46    41    48   ar
    47    41    42    1
    48    43    47    1
    49    43    49    1
    50    43    44    1
    51    45    46    1
    52    47    48   ar
    53    49    51    1
    54    49    52    1
    55    49    50    1
    56    51    58   ar
    57    51    60   ar
    58    52    53    1
    59    52    54    1
    60    52    55    1
    61    56    62   ar
    62    56    64   ar
    63    56    57    1
    64    58    64   ar
    65    58    59    1
    66    60    62   ar
    67    60    61    1
    68    62    63    1
    69    64    65    1
@<TRIPOS>SUBSTRUCTURE
     1 RES1        1 GROUP             0 ****  ****    0  
@<TRIPOS>MOLECULE
LIGAND_00322
    65    69     1     0     0
SMALL
USER_CHARGES
****
Generated from the CSD

@<TRIPOS>ATOM
     1 C1      -2.4792  -4.2529 -16.4101   C.ar      1 RES1   0.0000
     2 H2      -3.1362  -5.0584 -16.7202   H         1 RES1   0.0000
     3 C3      -0.8427  -2.1729 -15.6184   C.ar      1 RES1   0.0000
     4 H4      -0.2086  -1.3488 -15.3085   H         1 RES1   0.0000
     5 C5      -1.5964  -4.4580 -15.3540   C.ar      1 RES1   0.0000
     6 C6      -2.5412  -3.0390 -17.0712   C.ar      1 RES1   0.0000
     7 H7      -3.2259  -2.8917 -17.8997   H         1 RES1   0.0000
     8 C8      -1.7208  -2.0288 -16.6544   C.ar      1 RES1   0.0000
     9 C9      -0.7810  -3.3954 -14.9750   C.ar      1 RES1   0.0000
    10 H10     -0.0770  -3.5235 -14.1606   H         1 RES1   0.0000
    11 C11     -1.5206  -5.7662 -14.6259   C.2       1 RES1   0.0000
    12 F12     -1.7802  -0.8304 -17.2964   F         1 RES1   0.0000
    13 N13     -1.3114  -7.9562 -14.1607   N.am      1 RES1   0.0000
    14 C14     -1.6595  -9.4046 -14.3547   C.3       1 RES1   0.0000
    15 H15     -1.3268  -9.7019 -15.3481   H         1 RES1   0.0000
    16 C16     -1.1004  -7.7688 -11.7605   C.3       1 RES1   0.0000
    17 H17     -1.7555  -8.4614 -11.2362   H         1 RES1   0.0000
    18 H18     -0.1682  -8.2852 -11.9802   H         1 RES1   0.0000
    19 H19     -0.8794  -6.9388 -11.0928   H         1 RES1   0.0000
    20 C20     -1.7513  -5.9390 -13.3057   C.2       1 RES1   0.0000
    21 C21     -2.0254  -4.9138 -12.2663   C.ar      1 RES1   0.0000
    22 O22     -1.0792  -7.3834 -16.3739   O.2       1 RES1   0.0000
    23 C23     -1.2553  -7.0526 -15.2086   C.2       1 RES1   0.0000
    24 N24     -1.7311  -7.2889 -12.9907   N.3       1 RES1   0.0000
    25 C25     -1.2520 -11.7453 -13.5290   C.3       1 RES1   0.0000
    26 H26     -0.7548 -12.3324 -12.7583   H         1 RES1   0.0000
    27 H27     -0.9019 -12.0633 -14.5100   H         1 RES1   0.0000
    28 C28     -3.4788 -11.1344 -14.4346   C.3       1 RES1   0.0000
    29 H29     -3.1953 -11.4467 -15.4386   H         1 RES1   0.0000
    30 H30     -4.5476 -11.2897 -14.2944   H         1 RES1   0.0000
    31 C31     -3.1624  -9.6563 -14.2635   C.3       1 RES1   0.0000
    32 H32     -3.6663  -9.0913 -15.0462   H         1 RES1   0.0000
    33 H33     -3.5204  -9.3259 -13.2895   H         1 RES1   0.0000
    34 C34     -0.9301 -10.2744 -13.3301   C.3       1 RES1   0.0000
    35 H35     -1.2367  -9.9761 -12.3287   H         1 RES1   0.0000
    36 H36      0.1434 -10.1279 -13.4399   H         1 RES1   0.0000
    37 N37     -2.7298 -11.9537 -13.4369   N.4       1 RES1   1.0000
    38 H38     -3.0385 -11.6963 -12.5050   H         1 RES1   0.0000
    39 H39     -2.9323 -12.9346 -13.6016   H         1 RES1   0.0000
    40 N40     -1.1072  -4.7783 -11.2966   N.ar      1 RES1   0.0000
    41 C41     -3.3226  -3.2287 -11.2491   C.ar      1 RES1   0.0000
    42 H42     -4.2112  -2.6061 -11.2397   H         1 RES1   0.0000
    43 N43     -0.4495  -3.7510  -9.3549   N.pl3     1 RES1   0.0000
    44 H44      0.3744  -4.3514  -9.3878   H         1 RES1   0.0000
    45 C45     -3.1749  -4.1373 -12.2777   C.ar      1 RES1   0.0000
    46 H46     -3.9235  -4.2406 -13.0562   H         1 RES1   0.0000
    47 C47     -1.3567  -3.8727 -10.3371   C.ar      1 RES1   0.0000
    48 N48     -2.4311  -3.0737 -10.2618   N.ar      1 RES1   0.0000
    49 C49     -0.5988  -2.8563  -8.2074   C.3       1 RES1   0.0000
    50 H50     -0.8244  -1.8439  -8.5768   H         1 RES1   0.0000
    51 C51      0.6551  -2.7918  -7.3578   C.ar      1 RES1   0.0000
    52 C52     -1.7856  -3.3497  -7.3879   C.3       1 RES1   0.0000
    53 H53     -1.8863  -2.7751  -6.4695   H         1 RES1   0.0000
    54 H54     -2.7118  -3.2539  -7.9507   H         1 RES1   0.0000
    55 H55     -1.6588  -4.3965  -7.1200   H         1 RES1   0.0000
    56 C56      2.9513  -2.6789  -5.7845   C.ar      1 RES1   0.0000
    57 H57      3.8458  -2.6355  -5.1720   H         1 RES1   0.0000
    58 C58      0.6245  -3.1849  -6.0275   C.ar      1 RES1   0.0000
    59 H59     -0.3050  -3.5400  -5.5949   H         1 RES1   0.0000
    60 C60      1.8560  -2.3385  -7.8863   C.ar      1 RES1   0.0000
    61 H61      1.9039  -2.0241  -8.9236   H         1 RES1   0.0000
    62 C62      2.9966  -2.2833  -7.1032   C.ar      1 RES1   0.0000
    63 H63      3.9283  -1.9273  -7.5300   H         1 RES1   0.0000
    64 C64      1.7662  -3.1297  -5.2462   C.ar      1 RES1   0.0000
    65 H65      1.7269  -3.4422  -4.2080   H         1 RES1   0.0000
@<TRIPOS>BOND
     1     1     5   ar
     2     1     6   ar
     3     1     2    1
     4     3     8   ar
     5     3     9   ar
     6     3     4    1
     7     5     9   ar
     8     5    11    1
     9     6     8   ar
    10     6     7    1
    11     8    12    1
    12     9    10    1
    13    11    20    2
    14    11    23    1
    15    13    14    1
    16    13    23   am
    17    13    24    1
    18    14    31    1
    19    14    34    1
    20    14    15    1
    21    16    24    1
    22    16    17    1
    23    16    18    1
    24    16    19    1
    25    20    21    1
    26    20    24    1
    27    21    40   ar
    28    21    45   ar
    29    22    23    2
    30    25    34    1
    31    25    37    1
    32    25    26    1
    33    25    27    1
    34    28    31    1
    35    28    37    1
    36    28    29    1
    37    28    30    1
    38    31    32    1
    39    31    33    1
    40    34    35    1
    41    34    36    1
    42    37    38    1
    43    37    39    1
    44    40    47   ar
    45    41    45   ar
    46    41    48   ar
    47    41    42    1
    48    43    47    1
    49    43    49    1
    50    43    44    1
    51    45    46    1
    52    47    48   ar
    53    49    51    1
    54    49    52    1
    55    49    50    1
    56    51    58   ar
    57    51    60   ar
    58    52    53    1
    59    52    54    1
    60    52    55    1
    61    56    62   ar
    62    56    64   ar
    63    56    57    1
    64    58    64   ar
    65    58    59    1
    66    60    62   ar
    67    60    61    1
    68    62    63    1
    69    64    65    1
@<TRIPOS>SUBSTRUCTURE
     1 RES1        1 GROUP             0 ****  ****    0  
@<TRIPOS>MOLECULE
LIGAND_00323
    65    69     1     0     0
SMALL
USER_CHARGES
****
Generated from the CSD

@<TRIPOS>ATOM
     1 C1      -3.0248  -3.8117 -15.3691   C.ar      1 RES1   0.0000
     2 H2      -3.8579  -4.2218 -14.8086   H         1 RES1   0.0000
     3 C3      -0.9094  -2.7260 -16.7756   C.ar      1 RES1   0.0000
     4 H4      -0.0813  -2.2894 -17.3241   H         1 RES1   0.0000
     5 C5      -1.8085  -4.4880 -15.3803   C.ar      1 RES1   0.0000
     6 C6      -3.1929  -2.6215 -16.0545   C.ar      1 RES1   0.0000
     7 H7      -4.1477  -2.1065 -16.0477   H         1 RES1   0.0000
     8 C8      -2.1271  -2.1087 -16.7387   C.ar      1 RES1   0.0000
     9 C9      -0.7584  -3.9218 -16.0977   C.ar      1 RES1   0.0000
    10 H10      0.2005  -4.4262 -16.1329   H         1 RES1   0.0000
    11 C11     -1.6101  -5.7761 -14.6397   C.2       1 RES1   0.0000
    12 F12     -2.2837  -0.9357 -17.4105   F         1 RES1   0.0000
    13 N13     -1.2406  -7.9410 -14.1570   N.am      1 RES1   0.0000
    14 C14     -1.5106  -9.4109 -14.3092   C.3       1 RES1   0.0000
    15 H15     -1.2172  -9.7059 -15.3156   H         1 RES1   0.0000
    16 C16     -0.8997  -7.6987 -11.7768   C.3       1 RES1   0.0000
    17 H17     -1.4821  -8.4148 -11.2007   H         1 RES1   0.0000
    18 H18      0.0445  -8.1682 -12.0450   H         1 RES1   0.0000
    19 H19     -0.6847  -6.8442 -11.1386   H         1 RES1   0.0000
    20 C20     -1.7513  -5.9390 -13.3057   C.2       1 RES1   0.0000
    21 C21     -2.0254  -4.9138 -12.2663   C.ar      1 RES1   0.0000
    22 O22     -1.1751  -7.3947 -16.3880   O.2       1 RES1   0.0000
    23 C23     -1.3018  -7.0544 -15.2191   C.2       1 RES1   0.0000
    24 N24     -1.6302  -7.2794 -12.9734   N.3       1 RES1   0.0000
    25 C25     -0.9158 -11.7077 -13.4738   C.3       1 RES1   0.0000
    26 H26     -0.3411 -12.2498 -12.7244   H         1 RES1   0.0000
    27 H27     -0.6031 -12.0220 -14.4685   H         1 RES1   0.0000
    28 C28     -3.2233 -11.2475 -14.2587   C.3       1 RES1   0.0000
    29 H29     -2.9786 -11.5605 -15.2726   H         1 RES1   0.0000
    30 H30     -4.2710 -11.4637 -14.0549   H         1 RES1   0.0000
    31 C31     -2.9879  -9.7502 -14.1279   C.3       1 RES1   0.0000
    32 H32     -3.5686  -9.2307 -14.8887   H         1 RES1   0.0000
    33 H33     -3.3096  -9.4241 -13.1400   H         1 RES1   0.0000
    34 C34     -0.6730 -10.2168 -13.3155   C.3       1 RES1   0.0000
    35 H35     -0.9400  -9.9191 -12.3026   H         1 RES1   0.0000
    36 H36      0.3817 -10.0084 -13.4891   H         1 RES1   0.0000
    37 N37     -2.3707 -12.0022 -13.2938   N.4       1 RES1   1.0000
    38 H38     -2.6413 -11.7468 -12.3495   H         1 RES1   0.0000
    39 H39     -2.5223 -12.9963 -13.4320   H         1 RES1   0.0000
    40 N40     -3.1488  -5.0691 -11.5482   N.ar      1 RES1   0.0000
    41 C41     -1.5487  -2.9443 -11.0618   C.ar      1 RES1   0.0000
    42 H42     -0.8989  -2.0972 -10.8681   H         1 RES1   0.0000
    43 N43     -4.5543  -4.2769  -9.9188   N.pl3     1 RES1   0.0000
    44 H44     -5.1473  -5.0809 -10.1245   H         1 RES1   0.0000
    45 C45     -1.1781  -3.8376 -12.0468   C.ar      1 RES1   0.0000
    46 H46     -0.2689  -3.7025 -12.6231   H         1 RES1   0.0000
    47 C47     -3.4203  -4.1344 -10.6232   C.ar      1 RES1   0.0000
    48 N48     -2.6660  -3.0643 -10.3331   N.ar      1 RES1   0.0000
    49 C49     -5.0241  -3.3181  -8.9189   C.3       1 RES1   0.0000
    50 H50     -4.2104  -3.1298  -8.2015   H         1 RES1   0.0000
    51 C51     -6.2327  -3.8241  -8.1561   C.ar      1 RES1   0.0000
    52 C52     -5.3446  -2.0154  -9.6424   C.3       1 RES1   0.0000
    53 H53     -5.7878  -1.2935  -8.9597   H         1 RES1   0.0000
    54 H54     -4.4437  -1.5743 -10.0638   H         1 RES1   0.0000
    55 H55     -6.0479  -2.1896 -10.4540   H         1 RES1   0.0000
    56 C56     -8.4617  -4.7418  -6.7598   C.ar      1 RES1   0.0000
    57 H57     -9.3299  -5.0997  -6.2165   H         1 RES1   0.0000
    58 C58     -7.4348  -3.1330  -8.2042   C.ar      1 RES1   0.0000
    59 H59     -7.5072  -2.2241  -8.7923   H         1 RES1   0.0000
    60 C60     -6.1653  -4.9824  -7.3940   C.ar      1 RES1   0.0000
    61 H61     -5.2355  -5.5387  -7.3398   H         1 RES1   0.0000
    62 C62     -7.2742  -5.4375  -6.7008   C.ar      1 RES1   0.0000
    63 H63     -7.2070  -6.3448  -6.1097   H         1 RES1   0.0000
    64 C64     -8.5427  -3.5900  -7.5110   C.ar      1 RES1   0.0000
    65 H65     -9.4764  -3.0396  -7.5597   H         1 RES1   0.0000
@<TRIPOS>BOND
     1     1     5   ar
     2     1     6   ar
     3     1     2    1
     4     3     8   ar
     5     3     9   ar
     6     3     4    1
     7     5     9   ar
     8     5    11    1
     9     6     8   ar
    10     6     7    1
    11     8    12    1
    12     9    10    1
    13    11    20    2
    14    11    23    1
    15    13    14    1
    16    13    23   am
    17    13    24    1
    18    14    31    1
    19    14    34    1
    20    14    15    1
    21    16    24    1
    22    16    17    1
    23    16    18    1
    24    16    19    1
    25    20    21    1
    26    20    24    1
    27    21    40   ar
    28    21    45   ar
    29    22    23    2
    30    25    34    1
    31    25    37    1
    32    25    26    1
    33    25    27    1
    34    28    31    1
    35    28    37    1
    36    28    29    1
    37    28    30    1
    38    31    32    1
    39    31    33    1
    40    34    35    1
    41    34    36    1
    42    37    38    1
    43    37    39    1
    44    40    47   ar
    45    41    45   ar
    46    41    48   ar
    47    41    42    1
    48    43    47    1
    49    43    49    1
    50    43    44    1
    51    45    46    1
    52    47    48   ar
    53    49    51    1
    54    49    52    1
    55    49    50    1
    56    51    58   ar
    57    51    60   ar
    58    52    53    1
    59    52    54    1
    60    52    55    1
    61    56    62   ar
    62    56    64   ar
    63    56    57    1
    64    58    64   ar
    65    58    59    1
    66    60    62   ar
    67    60    61    1
    68    62    63    1
    69    64    65    1
@<TRIPOS>SUBSTRUCTURE
     1 RES1        1 GROUP             0 ****  ****    0  
@<TRIPOS>MOLECULE
LIGAND_00324
    65    69     1     0     0
SMALL
USER_CHARGES
****
Generated from the CSD

@<TRIPOS>ATOM
     1 C1      -3.0248  -3.8117 -15.3691   C.ar      1 RES1   0.0000
     2 H2      -3.8579  -4.2218 -14.8086   H         1 RES1   0.0000
     3 C3      -0.9094  -2.7260 -16.7756   C.ar      1 RES1   0.0000
     4 H4      -0.0813  -2.2894 -17.3241   H         1 RES1   0.0000
     5 C5      -1.8085  -4.4880 -15.3803   C.ar      1 RES1   0.0000
     6 C6      -3.1929  -2.6215 -16.0545   C.ar      1 RES1   0.0000
     7 H7      -4.1477  -2.1065 -16.0477   H         1 RES1   0.0000
     8 C8      -2.1271  -2.1087 -16.7387   C.ar      1 RES1   0.0000
     9 C9      -0.7584  -3.9218 -16.0977   C.ar      1 RES1   0.0000
    10 H10      0.2005  -4.4262 -16.1329   H         1 RES1   0.0000
    11 C11     -1.6101  -5.7761 -14.6397   C.2       1 RES1   0.0000
    12 F12     -2.2837  -0.9357 -17.4105   F         1 RES1   0.0000
    13 N13     -1.2406  -7.9410 -14.1570   N.am      1 RES1   0.0000
    14 C14     -1.5106  -9.4109 -14.3092   C.3       1 RES1   0.0000
    15 H15     -1.2171  -9.7059 -15.3156   H         1 RES1   0.0000
    16 C16     -0.8997  -7.6987 -11.7768   C.3       1 RES1   0.0000
    17 H17     -1.4821  -8.4149 -11.2007   H         1 RES1   0.0000
    18 H18      0.0445  -8.1681 -12.0450   H         1 RES1   0.0000
    19 H19     -0.6847  -6.8442 -11.1386   H         1 RES1   0.0000
    20 C20     -1.7513  -5.9390 -13.3057   C.2       1 RES1   0.0000
    21 C21     -2.0254  -4.9138 -12.2663   C.ar      1 RES1   0.0000
    22 O22     -1.1751  -7.3947 -16.3880   O.2       1 RES1   0.0000
    23 C23     -1.3018  -7.0544 -15.2191   C.2       1 RES1   0.0000
    24 N24     -1.6302  -7.2794 -12.9734   N.3       1 RES1   0.0000
    25 C25     -0.9159 -11.7077 -13.4737   C.3       1 RES1   0.0000
    26 H26     -0.3412 -12.2498 -12.7242   H         1 RES1   0.0000
    27 H27     -0.6031 -12.0220 -14.4684   H         1 RES1   0.0000
    28 C28     -3.2233 -11.2475 -14.2588   C.3       1 RES1   0.0000
    29 H29     -2.9785 -11.5605 -15.2727   H         1 RES1   0.0000
    30 H30     -4.2710 -11.4637 -14.0551   H         1 RES1   0.0000
    31 C31     -2.9879  -9.7502 -14.1280   C.3       1 RES1   0.0000
    32 H32     -3.5686  -9.2307 -14.8888   H         1 RES1   0.0000
    33 H33     -3.3097  -9.4241 -13.1401   H         1 RES1   0.0000
    34 C34     -0.6731 -10.2168 -13.3155   C.3       1 RES1   0.0000
    35 H35     -0.9401  -9.9191 -12.3026   H         1 RES1   0.0000
    36 H36      0.3816 -10.0084 -13.4889   H         1 RES1   0.0000
    37 N37     -2.3708 -12.0022 -13.2938   N.4       1 RES1   1.0000
    38 H38     -2.6415 -11.7467 -12.3495   H         1 RES1   0.0000
    39 H39     -2.5224 -12.9963 -13.4320   H         1 RES1   0.0000
    40 N40     -1.1245  -3.9267 -12.1410   N.ar      1 RES1   0.0000
    41 C41     -3.2824  -3.9653 -10.5120   C.ar      1 RES1   0.0000
    42 H42     -4.1537  -3.9839  -9.8657   H         1 RES1   0.0000
    43 N43     -0.4373  -2.0325 -11.0465   N.pl3     1 RES1   0.0000
    44 H44     -0.6103  -1.3146 -10.3430   H         1 RES1   0.0000
    45 C45     -3.1458  -4.9686 -11.4502   C.ar      1 RES1   0.0000
    46 H46     -3.8787  -5.7633 -11.5427   H         1 RES1   0.0000
    47 C47     -1.3484  -3.0085 -11.1872   C.ar      1 RES1   0.0000
    48 N48     -2.3988  -2.9712 -10.3544   N.ar      1 RES1   0.0000
    49 C49      0.7564  -1.8990 -11.8814   C.3       1 RES1   0.0000
    50 H50      1.3307  -2.8368 -11.8279   H         1 RES1   0.0000
    51 C51      1.6503  -0.7594 -11.4335   C.ar      1 RES1   0.0000
    52 C52      0.2942  -1.6941 -13.3193   C.3       1 RES1   0.0000
    53 H53      1.0434  -1.1515 -13.8922   H         1 RES1   0.0000
    54 H54      0.1189  -2.6493 -13.8099   H         1 RES1   0.0000
    55 H55     -0.6319  -1.1239 -13.3477   H         1 RES1   0.0000
    56 C56      3.2805   1.3426 -10.6060   C.ar      1 RES1   0.0000
    57 H57      3.9155   2.1608 -10.2831   H         1 RES1   0.0000
    58 C58      1.1024   0.3889 -10.8801   C.ar      1 RES1   0.0000
    59 H59      0.0261   0.4691 -10.7688   H         1 RES1   0.0000
    60 C60      3.0298  -0.8358 -11.5678   C.ar      1 RES1   0.0000
    61 H61      3.4811  -1.7231 -11.9994   H         1 RES1   0.0000
    62 C62      3.8389   0.2096 -11.1556   C.ar      1 RES1   0.0000
    63 H63      4.9156   0.1356 -11.2661   H         1 RES1   0.0000
    64 C64      1.9129   1.4329 -10.4679   C.ar      1 RES1   0.0000
    65 H65      1.4698   2.3237 -10.0353   H         1 RES1   0.0000
@<TRIPOS>BOND
     1     1     5   ar
     2     1     6   ar
     3     1     2    1
     4     3     8   ar
     5     3     9   ar
     6     3     4    1
     7     5     9   ar
     8     5    11    1
     9     6     8   ar
    10     6     7    1
    11     8    12    1
    12     9    10    1
    13    11    20    2
    14    11    23    1
    15    13    14    1
    16    13    23   am
    17    13    24    1
    18    14    31    1
    19    14    34    1
    20    14    15    1
    21    16    24    1
    22    16    17    1
    23    16    18    1
    24    16    19    1
    25    20    21    1
    26    20    24    1
    27    21    40   ar
    28    21    45   ar
    29    22    23    2
    30    25    34    1
    31    25    37    1
    32    25    26    1
    33    25    27    1
    34    28    31    1
    35    28    37    1
    36    28    29    1
    37    28    30    1
    38    31    32    1
    39    31    33    1
    40    34    35    1
    41    34    36    1
    42    37    38    1
    43    37    39    1
    44    40    47   ar
    45    41    45   ar
    46    41    48   ar
    47    41    42    1
    48    43    47    1
    49    43    49    1
    50    43    44    1
    51    45    46    1
    52    47    48   ar
    53    49    51    1
    54    49    52    1
    55    49    50    1
    56    51    58   ar
    57    51    60   ar
    58    52    53    1
    59    52    54    1
    60    52    55    1
    61    56    62   ar
    62    56    64   ar
    63    56    57    1
    64    58    64   ar
    65    58    59    1
    66    60    62   ar
    67    60    61    1
    68    62    63    1
    69    64    65    1
@<TRIPOS>SUBSTRUCTURE
     1 RES1        1 GROUP             0 ****  ****    0  
@<TRIPOS>MOLECULE
LIGAND_00325
    65    69     1     0     0
SMALL
USER_CHARGES
****
Generated from the CSD

@<TRIPOS>ATOM
     1 C1      -2.3155  -4.2027 -16.4165   C.ar      1 RES1   0.0000
     2 H2      -2.9886  -4.9824 -16.7562   H         1 RES1   0.0000
     3 C3      -0.6367  -2.1870 -15.5501   C.ar      1 RES1   0.0000
     4 H4       0.0143  -1.3879 -15.2112   H         1 RES1   0.0000
     5 C5      -1.4765  -4.4469 -15.3333   C.ar      1 RES1   0.0000
     6 C6      -2.3135  -2.9818 -17.0675   C.ar      1 RES1   0.0000
     7 H7      -2.9642  -2.8040 -17.9172   H         1 RES1   0.0000
     8 C8      -1.4737  -2.0040 -16.6137   C.ar      1 RES1   0.0000
     9 C9      -0.6386  -3.4163 -14.9168   C.ar      1 RES1   0.0000
    10 H10      0.0325  -3.5754 -14.0805   H         1 RES1   0.0000
    11 C11     -1.4702  -5.7631 -14.6157   C.2       1 RES1   0.0000
    12 F12     -1.4704  -0.7988 -17.2458   F         1 RES1   0.0000
    13 N13     -1.3517  -7.9628 -14.1648   N.am      1 RES1   0.0000
    14 C14     -1.7422  -9.3967 -14.3843   C.3       1 RES1   0.0000
    15 H15     -1.3954  -9.6938 -15.3729   H         1 RES1   0.0000
    16 C16     -1.2160  -7.8032 -11.7572   C.3       1 RES1   0.0000
    17 H17     -1.9014  -8.4969 -11.2747   H         1 RES1   0.0000
    18 H18     -0.2818  -8.3276 -11.9474   H         1 RES1   0.0000
    19 H19     -1.0133  -6.9891 -11.0645   H         1 RES1   0.0000
    20 C20     -1.7513  -5.9390 -13.3057   C.2       1 RES1   0.0000
    21 C21     -2.0254  -4.9138 -12.2663   C.ar      1 RES1   0.0000
    22 O22     -1.0251  -7.3797 -16.3633   O.2       1 RES1   0.0000
    23 C23     -1.2292  -7.0528 -15.2015   C.2       1 RES1   0.0000
    24 N24     -1.7878  -7.2914 -13.0031   N.3       1 RES1   0.0000
    25 C25     -1.4319 -11.7587 -13.5770   C.3       1 RES1   0.0000
    26 H26     -0.9730 -12.3703 -12.8016   H         1 RES1   0.0000
    27 H27     -1.0685 -12.0771 -14.5530   H         1 RES1   0.0000
    28 C28     -3.6148 -11.0645 -14.5284   C.3       1 RES1   0.0000
    29 H29     -3.3173 -11.3748 -15.5289   H         1 RES1   0.0000
    30 H30     -4.6911 -11.1859 -14.4157   H         1 RES1   0.0000
    31 C31     -3.2544  -9.5996 -14.3321   C.3       1 RES1   0.0000
    32 H32     -3.7203  -9.0096 -15.1200   H         1 RES1   0.0000
    33 H33     -3.6250  -9.2684 -13.3632   H         1 RES1   0.0000
    34 C34     -1.0669 -10.3015 -13.3530   C.3       1 RES1   0.0000
    35 H35     -1.3878 -10.0044 -12.3557   H         1 RES1   0.0000
    36 H36      0.0132 -10.1893 -13.4352   H         1 RES1   0.0000
    37 N37     -2.9175 -11.9191 -13.5229   N.4       1 RES1   1.0000
    38 H38     -3.2402 -11.6620 -12.5956   H         1 RES1   0.0000
    39 H39     -3.1479 -12.8908 -13.7040   H         1 RES1   0.0000
    40 N40     -3.1660  -4.2176 -12.3926   N.ar      1 RES1   0.0000
    41 C41     -1.5085  -3.6809 -10.3247   C.ar      1 RES1   0.0000
    42 H42     -0.8414  -3.4750  -9.4941   H         1 RES1   0.0000
    43 N43     -4.5422  -2.5584 -11.6104   N.pl3     1 RES1   0.0000
    44 H44     -4.7525  -1.8542 -10.9032   H         1 RES1   0.0000
    45 C45     -1.1491  -4.6689 -11.2192   C.ar      1 RES1   0.0000
    46 H46     -0.2241  -5.2252 -11.1095   H         1 RES1   0.0000
    47 C47     -3.4120  -3.2702 -11.4733   C.ar      1 RES1   0.0000
    48 N48     -2.6338  -2.9618 -10.4257   N.ar      1 RES1   0.0000
    49 C49     -5.5217  -2.7727 -12.6753   C.3       1 RES1   0.0000
    50 H50     -5.0104  -2.6882 -13.6468   H         1 RES1   0.0000
    51 C51     -6.6504  -1.7613 -12.6344   C.ar      1 RES1   0.0000
    52 C52     -6.0584  -4.1920 -12.5311   C.3       1 RES1   0.0000
    53 H53     -7.0637  -4.2682 -12.9403   H         1 RES1   0.0000
    54 H54     -5.4237  -4.9017 -13.0576   H         1 RES1   0.0000
    55 H55     -6.0964  -4.4838 -11.4837   H         1 RES1   0.0000
    56 C56     -8.7233   0.0975 -12.5437   C.ar      1 RES1   0.0000
    57 H57     -9.5301   0.8221 -12.5085   H         1 RES1   0.0000
    58 C58     -7.0961  -1.2532 -11.4227   C.ar      1 RES1   0.0000
    59 H59     -6.6319  -1.5843 -10.4996   H         1 RES1   0.0000
    60 C60     -7.2630  -1.3239 -13.8007   C.ar      1 RES1   0.0000
    61 H61     -6.9327  -1.7085 -14.7600   H         1 RES1   0.0000
    62 C62     -8.2929  -0.3996 -13.7541   C.ar      1 RES1   0.0000
    63 H63     -8.7619  -0.0664 -14.6739   H         1 RES1   0.0000
    64 C64     -8.1255  -0.3285 -11.3780   C.ar      1 RES1   0.0000
    65 H65     -8.4619   0.0611 -10.4230   H         1 RES1   0.0000
@<TRIPOS>BOND
     1     1     5   ar
     2     1     6   ar
     3     1     2    1
     4     3     8   ar
     5     3     9   ar
     6     3     4    1
     7     5     9   ar
     8     5    11    1
     9     6     8   ar
    10     6     7    1
    11     8    12    1
    12     9    10    1
    13    11    20    2
    14    11    23    1
    15    13    14    1
    16    13    23   am
    17    13    24    1
    18    14    31    1
    19    14    34    1
    20    14    15    1
    21    16    24    1
    22    16    17    1
    23    16    18    1
    24    16    19    1
    25    20    21    1
    26    20    24    1
    27    21    40   ar
    28    21    45   ar
    29    22    23    2
    30    25    34    1
    31    25    37    1
    32    25    26    1
    33    25    27    1
    34    28    31    1
    35    28    37    1
    36    28    29    1
    37    28    30    1
    38    31    32    1
    39    31    33    1
    40    34    35    1
    41    34    36    1
    42    37    38    1
    43    37    39    1
    44    40    47   ar
    45    41    45   ar
    46    41    48   ar
    47    41    42    1
    48    43    47    1
    49    43    49    1
    50    43    44    1
    51    45    46    1
    52    47    48   ar
    53    49    51    1
    54    49    52    1
    55    49    50    1
    56    51    58   ar
    57    51    60   ar
    58    52    53    1
    59    52    54    1
    60    52    55    1
    61    56    62   ar
    62    56    64   ar
    63    56    57    1
    64    58    64   ar
    65    58    59    1
    66    60    62   ar
    67    60    61    1
    68    62    63    1
    69    64    65    1
@<TRIPOS>SUBSTRUCTURE
     1 RES1        1 GROUP             0 ****  ****    0  
@<TRIPOS>MOLECULE
LIGAND_00326
    65    69     1     0     0
SMALL
USER_CHARGES
****
Generated from the CSD

@<TRIPOS>ATOM
     1 C1      -2.6196  -3.6574 -15.4140   C.ar      1 RES1   0.0000
     2 H2      -3.5366  -3.9972 -14.9447   H         1 RES1   0.0000
     3 C3      -0.2888  -2.7511 -16.5877   C.ar      1 RES1   0.0000
     4 H4       0.6245  -2.3848 -17.0447   H         1 RES1   0.0000
     5 C5      -1.4764  -4.4469 -15.3333   C.ar      1 RES1   0.0000
     6 C6      -2.6103  -2.4428 -16.0766   C.ar      1 RES1   0.0000
     7 H7      -3.5091  -1.8388 -16.1425   H         1 RES1   0.0000
     8 C8      -1.4414  -2.0207 -16.6446   C.ar      1 RES1   0.0000
     9 C9      -0.3150  -3.9695 -15.9342   C.ar      1 RES1   0.0000
    10 H10      0.5915  -4.5627 -15.8959   H         1 RES1   0.0000
    11 C11     -1.4701  -5.7631 -14.6157   C.2       1 RES1   0.0000
    12 F12     -1.4235  -0.8245 -17.2933   F         1 RES1   0.0000
    13 N13     -1.3518  -7.9629 -14.1648   N.am      1 RES1   0.0000
    14 C14     -1.7423  -9.3967 -14.3844   C.3       1 RES1   0.0000
    15 H15     -1.3954  -9.6938 -15.3729   H         1 RES1   0.0000
    16 C16     -1.2162  -7.8032 -11.7572   C.3       1 RES1   0.0000
    17 H17     -1.9019  -8.4966 -11.2746   H         1 RES1   0.0000
    18 H18     -0.2822  -8.3280 -11.9474   H         1 RES1   0.0000
    19 H19     -1.0131  -6.9891 -11.0646   H         1 RES1   0.0000
    20 C20     -1.7513  -5.9390 -13.3057   C.2       1 RES1   0.0000
    21 C21     -2.0254  -4.9138 -12.2663   C.ar      1 RES1   0.0000
    22 O22     -1.0250  -7.3797 -16.3633   O.2       1 RES1   0.0000
    23 C23     -1.2292  -7.0528 -15.2015   C.2       1 RES1   0.0000
    24 N24     -1.7879  -7.2914 -13.0032   N.3       1 RES1   0.0000
    25 C25     -1.4322 -11.7587 -13.5771   C.3       1 RES1   0.0000
    26 H26     -0.9735 -12.3704 -12.8016   H         1 RES1   0.0000
    27 H27     -1.0688 -12.0771 -14.5530   H         1 RES1   0.0000
    28 C28     -3.6150 -11.0644 -14.5286   C.3       1 RES1   0.0000
    29 H29     -3.3174 -11.3747 -15.5292   H         1 RES1   0.0000
    30 H30     -4.6913 -11.1857 -14.4160   H         1 RES1   0.0000
    31 C31     -3.2545  -9.5995 -14.3323   C.3       1 RES1   0.0000
    32 H32     -3.7203  -9.0095 -15.1202   H         1 RES1   0.0000
    33 H33     -3.6252  -9.2683 -13.3634   H         1 RES1   0.0000
    34 C34     -1.0672 -10.3015 -13.3529   C.3       1 RES1   0.0000
    35 H35     -1.3882 -10.0044 -12.3557   H         1 RES1   0.0000
    36 H36      0.0129 -10.1894 -13.4351   H         1 RES1   0.0000
    37 N37     -2.9178 -11.9190 -13.5231   N.4       1 RES1   1.0000
    38 H38     -3.2407 -11.6619 -12.5958   H         1 RES1   0.0000
    39 H39     -3.1483 -12.8907 -13.7042   H         1 RES1   0.0000
    40 N40     -3.1660  -4.2176 -12.3926   N.ar      1 RES1   0.0000
    41 C41     -1.5085  -3.6809 -10.3247   C.ar      1 RES1   0.0000
    42 H42     -0.8414  -3.4750  -9.4941   H         1 RES1   0.0000
    43 N43     -4.5422  -2.5584 -11.6104   N.pl3     1 RES1   0.0000
    44 H44     -4.7527  -1.8545 -10.9030   H         1 RES1   0.0000
    45 C45     -1.1491  -4.6689 -11.2192   C.ar      1 RES1   0.0000
    46 H46     -0.2241  -5.2252 -11.1095   H         1 RES1   0.0000
    47 C47     -3.4120  -3.2702 -11.4733   C.ar      1 RES1   0.0000
    48 N48     -2.6338  -2.9618 -10.4257   N.ar      1 RES1   0.0000
    49 C49     -5.5215  -2.7724 -12.6756   C.3       1 RES1   0.0000
    50 H50     -5.0099  -2.6876 -13.6469   H         1 RES1   0.0000
    51 C51     -6.6501  -1.7609 -12.6347   C.ar      1 RES1   0.0000
    52 C52     -6.0583  -4.1916 -12.5319   C.3       1 RES1   0.0000
    53 H53     -7.0606  -4.2694 -12.9478   H         1 RES1   0.0000
    54 H54     -5.4195  -4.9022 -13.0523   H         1 RES1   0.0000
    55 H55     -6.1034  -4.4811 -11.4841   H         1 RES1   0.0000
    56 C56     -8.7229   0.0980 -12.5440   C.ar      1 RES1   0.0000
    57 H57     -9.5297   0.8226 -12.5089   H         1 RES1   0.0000
    58 C58     -7.0960  -1.2530 -11.4230   C.ar      1 RES1   0.0000
    59 H59     -6.6320  -1.5844 -10.4998   H         1 RES1   0.0000
    60 C60     -7.2624  -1.3233 -13.8011   C.ar      1 RES1   0.0000
    61 H61     -6.9320  -1.7077 -14.7603   H         1 RES1   0.0000
    62 C62     -8.2923  -0.3989 -13.7545   C.ar      1 RES1   0.0000
    63 H63     -8.7611  -0.0654 -14.6743   H         1 RES1   0.0000
    64 C64     -8.1254  -0.3283 -11.3783   C.ar      1 RES1   0.0000
    65 H65     -8.4619   0.0611 -10.4233   H         1 RES1   0.0000
@<TRIPOS>BOND
     1     1     5   ar
     2     1     6   ar
     3     1     2    1
     4     3     8   ar
     5     3     9   ar
     6     3     4    1
     7     5     9   ar
     8     5    11    1
     9     6     8   ar
    10     6     7    1
    11     8    12    1
    12     9    10    1
    13    11    20    2
    14    11    23    1
    15    13    14    1
    16    13    23   am
    17    13    24    1
    18    14    31    1
    19    14    34    1
    20    14    15    1
    21    16    24    1
    22    16    17    1
    23    16    18    1
    24    16    19    1
    25    20    21    1
    26    20    24    1
    27    21    40   ar
    28    21    45   ar
    29    22    23    2
    30    25    34    1
    31    25    37    1
    32    25    26    1
    33    25    27    1
    34    28    31    1
    35    28    37    1
    36    28    29    1
    37    28    30    1
    38    31    32    1
    39    31    33    1
    40    34    35    1
    41    34    36    1
    42    37    38    1
    43    37    39    1
    44    40    47   ar
    45    41    45   ar
    46    41    48   ar
    47    41    42    1
    48    43    47    1
    49    43    49    1
    50    43    44    1
    51    45    46    1
    52    47    48   ar
    53    49    51    1
    54    49    52    1
    55    49    50    1
    56    51    58   ar
    57    51    60   ar
    58    52    53    1
    59    52    54    1
    60    52    55    1
    61    56    62   ar
    62    56    64   ar
    63    56    57    1
    64    58    64   ar
    65    58    59    1
    66    60    62   ar
    67    60    61    1
    68    62    63    1
    69    64    65    1
@<TRIPOS>SUBSTRUCTURE
     1 RES1        1 GROUP             0 ****  ****    0  
@<TRIPOS>MOLECULE
LIGAND_00327
    65    69     1     0     0
SMALL
USER_CHARGES
****
Generated from the CSD

@<TRIPOS>ATOM
     1 C1      -2.8354  -4.3673 -16.3562   C.ar      1 RES1   0.0000
     2 H2      -3.4686  -5.2168 -16.5883   H         1 RES1   0.0000
     3 C3      -1.2606  -2.1771 -15.7603   C.ar      1 RES1   0.0000
     4 H4      -0.6513  -1.3103 -15.5267   H         1 RES1   0.0000
     5 C5      -1.8481  -4.4951 -15.3838   C.ar      1 RES1   0.0000
     6 C6      -3.0310  -3.1753 -17.0312   C.ar      1 RES1   0.0000
     7 H7      -3.7969  -3.0882 -17.7945   H         1 RES1   0.0000
     8 C8      -2.2378  -2.1094 -16.7121   C.ar      1 RES1   0.0000
     9 C9      -1.0664  -3.3780 -15.1028   C.ar      1 RES1   0.0000
    10 H10     -0.2838  -3.4452 -14.3557   H         1 RES1   0.0000
    11 C11     -1.6269  -5.7786 -14.6417   C.2       1 RES1   0.0000
    12 F12     -2.4282  -0.9323 -17.3680   F         1 RES1   0.0000
    13 N13     -1.2275  -7.9377 -14.1568   N.am      1 RES1   0.0000
    14 C14     -1.4824  -9.4110 -14.3017   C.3       1 RES1   0.0000
    15 H15     -1.1968  -9.7057 -15.3104   H         1 RES1   0.0000
    16 C16     -0.8628  -7.6843 -11.7812   C.3       1 RES1   0.0000
    17 H17     -1.4308  -8.4049 -11.1964   H         1 RES1   0.0000
    18 H18      0.0834  -8.1442 -12.0587   H         1 RES1   0.0000
    19 H19     -0.6501  -6.8254 -11.1482   H         1 RES1   0.0000
    20 C20     -1.7513  -5.9390 -13.3057   C.2       1 RES1   0.0000
    21 C21     -2.0254  -4.9138 -12.2663   C.ar      1 RES1   0.0000
    22 O22     -1.1931  -7.3975 -16.3900   O.2       1 RES1   0.0000
    23 C23     -1.3105  -7.0551 -15.2207   C.2       1 RES1   0.0000
    24 N24     -1.6113  -7.2770 -12.9708   N.3       1 RES1   0.0000
    25 C25     -0.8526 -11.6984 -13.4661   C.3       1 RES1   0.0000
    26 H26     -0.2636 -12.2317 -12.7214   H         1 RES1   0.0000
    27 H27     -0.5472 -12.0122 -14.4632   H         1 RES1   0.0000
    28 C28     -3.1736 -11.2666 -14.2269   C.3       1 RES1   0.0000
    29 H29     -2.9364 -11.5800 -15.2425   H         1 RES1   0.0000
    30 H30     -4.2164 -11.4940 -14.0110   H         1 RES1   0.0000
    31 C31     -2.9538  -9.7664 -14.1032   C.3       1 RES1   0.0000
    32 H32     -3.5486  -9.2558 -14.8591   H         1 RES1   0.0000
    33 H33     -3.2683  -9.4409 -13.1127   H         1 RES1   0.0000
    34 C34     -0.6250 -10.2044 -13.3149   C.3       1 RES1   0.0000
    35 H35     -0.8842  -9.9066 -12.3000   H         1 RES1   0.0000
    36 H36      0.4253  -9.9846 -13.5006   H         1 RES1   0.0000
    37 N37     -2.3020 -12.0087 -13.2692   N.4       1 RES1   1.0000
    38 H38     -2.5651 -11.7534 -12.3227   H         1 RES1   0.0000
    39 H39     -2.4439 -13.0048 -13.4028   H         1 RES1   0.0000
    40 N40     -1.1245  -3.9267 -12.1410   N.ar      1 RES1   0.0000
    41 C41     -3.2824  -3.9653 -10.5120   C.ar      1 RES1   0.0000
    42 H42     -4.1537  -3.9839  -9.8657   H         1 RES1   0.0000
    43 N43     -0.4373  -2.0325 -11.0465   N.pl3     1 RES1   0.0000
    44 H44      0.3841  -2.0544 -11.6508   H         1 RES1   0.0000
    45 C45     -3.1458  -4.9686 -11.4502   C.ar      1 RES1   0.0000
    46 H46     -3.8787  -5.7633 -11.5427   H         1 RES1   0.0000
    47 C47     -1.3484  -3.0085 -11.1872   C.ar      1 RES1   0.0000
    48 N48     -2.3988  -2.9712 -10.3544   N.ar      1 RES1   0.0000
    49 C49     -0.5173  -0.9756 -10.0386   C.3       1 RES1   0.0000
    50 H50     -1.4821  -0.4564 -10.1481   H         1 RES1   0.0000
    51 C51      0.5973   0.0425 -10.1788   C.ar      1 RES1   0.0000
    52 C52     -0.4767  -1.6402  -8.6675   C.3       1 RES1   0.0000
    53 H53     -0.0589  -0.9653  -7.9234   H         1 RES1   0.0000
    54 H54     -1.4762  -1.9237  -8.3445   H         1 RES1   0.0000
    55 H55      0.1380  -2.5375  -8.6936   H         1 RES1   0.0000
    56 C56      2.6550   1.9019 -10.4417   C.ar      1 RES1   0.0000
    57 H57      3.4560   2.6263 -10.5447   H         1 RES1   0.0000
    58 C58      1.8517  -0.3452 -10.6275   C.ar      1 RES1   0.0000
    59 H59      2.0333  -1.3850 -10.8785   H         1 RES1   0.0000
    60 C60      0.3917   1.3781  -9.8614   C.ar      1 RES1   0.0000
    61 H61     -0.5803   1.7045  -9.5069   H         1 RES1   0.0000
    62 C62      1.4153   2.3013  -9.9929   C.ar      1 RES1   0.0000
    63 H63      1.2399   3.3420  -9.7417   H         1 RES1   0.0000
    64 C64      2.8738   0.5794 -10.7591   C.ar      1 RES1   0.0000
    65 H65      3.8488   0.2614 -11.1129   H         1 RES1   0.0000
@<TRIPOS>BOND
     1     1     5   ar
     2     1     6   ar
     3     1     2    1
     4     3     8   ar
     5     3     9   ar
     6     3     4    1
     7     5     9   ar
     8     5    11    1
     9     6     8   ar
    10     6     7    1
    11     8    12    1
    12     9    10    1
    13    11    20    2
    14    11    23    1
    15    13    14    1
    16    13    23   am
    17    13    24    1
    18    14    31    1
    19    14    34    1
    20    14    15    1
    21    16    24    1
    22    16    17    1
    23    16    18    1
    24    16    19    1
    25    20    21    1
    26    20    24    1
    27    21    40   ar
    28    21    45   ar
    29    22    23    2
    30    25    34    1
    31    25    37    1
    32    25    26    1
    33    25    27    1
    34    28    31    1
    35    28    37    1
    36    28    29    1
    37    28    30    1
    38    31    32    1
    39    31    33    1
    40    34    35    1
    41    34    36    1
    42    37    38    1
    43    37    39    1
    44    40    47   ar
    45    41    45   ar
    46    41    48   ar
    47    41    42    1
    48    43    47    1
    49    43    49    1
    50    43    44    1
    51    45    46    1
    52    47    48   ar
    53    49    51    1
    54    49    52    1
    55    49    50    1
    56    51    58   ar
    57    51    60   ar
    58    52    53    1
    59    52    54    1
    60    52    55    1
    61    56    62   ar
    62    56    64   ar
    63    56    57    1
    64    58    64   ar
    65    58    59    1
    66    60    62   ar
    67    60    61    1
    68    62    63    1
    69    64    65    1
@<TRIPOS>SUBSTRUCTURE
     1 RES1        1 GROUP             0 ****  ****    0  
@<TRIPOS>MOLECULE
LIGAND_00328
    65    69     1     0     0
SMALL
USER_CHARGES
****
Generated from the CSD

@<TRIPOS>ATOM
     1 C1      -3.0248  -3.8117 -15.3691   C.ar      1 RES1   0.0000
     2 H2      -3.8579  -4.2218 -14.8086   H         1 RES1   0.0000
     3 C3      -0.9094  -2.7260 -16.7756   C.ar      1 RES1   0.0000
     4 H4      -0.0813  -2.2894 -17.3241   H         1 RES1   0.0000
     5 C5      -1.8085  -4.4880 -15.3803   C.ar      1 RES1   0.0000
     6 C6      -3.1929  -2.6215 -16.0545   C.ar      1 RES1   0.0000
     7 H7      -4.1477  -2.1065 -16.0477   H         1 RES1   0.0000
     8 C8      -2.1271  -2.1087 -16.7387   C.ar      1 RES1   0.0000
     9 C9      -0.7584  -3.9218 -16.0977   C.ar      1 RES1   0.0000
    10 H10      0.2005  -4.4262 -16.1329   H         1 RES1   0.0000
    11 C11     -1.6101  -5.7761 -14.6397   C.2       1 RES1   0.0000
    12 F12     -2.2837  -0.9357 -17.4105   F         1 RES1   0.0000
    13 N13     -1.2406  -7.9410 -14.1570   N.am      1 RES1   0.0000
    14 C14     -1.5106  -9.4109 -14.3092   C.3       1 RES1   0.0000
    15 H15     -1.2171  -9.7059 -15.3156   H         1 RES1   0.0000
    16 C16     -0.8997  -7.6987 -11.7768   C.3       1 RES1   0.0000
    17 H17     -1.4821  -8.4147 -11.2006   H         1 RES1   0.0000
    18 H18      0.0445  -8.1683 -12.0450   H         1 RES1   0.0000
    19 H19     -0.6846  -6.8442 -11.1387   H         1 RES1   0.0000
    20 C20     -1.7513  -5.9390 -13.3057   C.2       1 RES1   0.0000
    21 C21     -2.0254  -4.9138 -12.2663   C.ar      1 RES1   0.0000
    22 O22     -1.1751  -7.3947 -16.3880   O.2       1 RES1   0.0000
    23 C23     -1.3018  -7.0544 -15.2191   C.2       1 RES1   0.0000
    24 N24     -1.6302  -7.2794 -12.9734   N.3       1 RES1   0.0000
    25 C25     -0.9160 -11.7077 -13.4737   C.3       1 RES1   0.0000
    26 H26     -0.3413 -12.2498 -12.7242   H         1 RES1   0.0000
    27 H27     -0.6031 -12.0220 -14.4683   H         1 RES1   0.0000
    28 C28     -3.2233 -11.2475 -14.2588   C.3       1 RES1   0.0000
    29 H29     -2.9785 -11.5605 -15.2727   H         1 RES1   0.0000
    30 H30     -4.2710 -11.4637 -14.0552   H         1 RES1   0.0000
    31 C31     -2.9880  -9.7502 -14.1281   C.3       1 RES1   0.0000
    32 H32     -3.5686  -9.2307 -14.8889   H         1 RES1   0.0000
    33 H33     -3.3098  -9.4240 -13.1402   H         1 RES1   0.0000
    34 C34     -0.6731 -10.2168 -13.3154   C.3       1 RES1   0.0000
    35 H35     -0.9402  -9.9191 -12.3025   H         1 RES1   0.0000
    36 H36      0.3816 -10.0085 -13.4888   H         1 RES1   0.0000
    37 N37     -2.3708 -12.0022 -13.2938   N.4       1 RES1   1.0000
    38 H38     -2.6416 -11.7467 -12.3495   H         1 RES1   0.0000
    39 H39     -2.5225 -12.9962 -13.4320   H         1 RES1   0.0000
    40 N40     -1.1245  -3.9267 -12.1410   N.ar      1 RES1   0.0000
    41 C41     -3.2824  -3.9653 -10.5120   C.ar      1 RES1   0.0000
    42 H42     -4.1537  -3.9839  -9.8657   H         1 RES1   0.0000
    43 N43     -0.4373  -2.0325 -11.0465   N.pl3     1 RES1   0.0000
    44 H44      0.3841  -2.0543 -11.6509   H         1 RES1   0.0000
    45 C45     -3.1458  -4.9686 -11.4502   C.ar      1 RES1   0.0000
    46 H46     -3.8787  -5.7633 -11.5427   H         1 RES1   0.0000
    47 C47     -1.3484  -3.0085 -11.1872   C.ar      1 RES1   0.0000
    48 N48     -2.3988  -2.9712 -10.3544   N.ar      1 RES1   0.0000
    49 C49     -0.5173  -0.9756 -10.0385   C.3       1 RES1   0.0000
    50 H50     -1.4820  -0.4565 -10.1479   H         1 RES1   0.0000
    51 C51      0.5974   0.0424 -10.1788   C.ar      1 RES1   0.0000
    52 C52     -0.4766  -1.6404  -8.6675   C.3       1 RES1   0.0000
    53 H53     -0.0191  -0.9816  -7.9323   H         1 RES1   0.0000
    54 H54     -1.4800  -1.8849  -8.3253   H         1 RES1   0.0000
    55 H55      0.1025  -2.5608  -8.7038   H         1 RES1   0.0000
    56 C56      2.6550   1.9018 -10.4416   C.ar      1 RES1   0.0000
    57 H57      3.4561   2.6262 -10.5446   H         1 RES1   0.0000
    58 C58      1.8517  -0.3452 -10.6275   C.ar      1 RES1   0.0000
    59 H59      2.0333  -1.3850 -10.8785   H         1 RES1   0.0000
    60 C60      0.3918   1.3780  -9.8613   C.ar      1 RES1   0.0000
    61 H61     -0.5802   1.7044  -9.5067   H         1 RES1   0.0000
    62 C62      1.4154   2.3012  -9.9928   C.ar      1 RES1   0.0000
    63 H63      1.2400   3.3419  -9.7415   H         1 RES1   0.0000
    64 C64      2.8738   0.5794 -10.7591   C.ar      1 RES1   0.0000
    65 H65      3.8488   0.2614 -11.1130   H         1 RES1   0.0000
@<TRIPOS>BOND
     1     1     5   ar
     2     1     6   ar
     3     1     2    1
     4     3     8   ar
     5     3     9   ar
     6     3     4    1
     7     5     9   ar
     8     5    11    1
     9     6     8   ar
    10     6     7    1
    11     8    12    1
    12     9    10    1
    13    11    20    2
    14    11    23    1
    15    13    14    1
    16    13    23   am
    17    13    24    1
    18    14    31    1
    19    14    34    1
    20    14    15    1
    21    16    24    1
    22    16    17    1
    23    16    18    1
    24    16    19    1
    25    20    21    1
    26    20    24    1
    27    21    40   ar
    28    21    45   ar
    29    22    23    2
    30    25    34    1
    31    25    37    1
    32    25    26    1
    33    25    27    1
    34    28    31    1
    35    28    37    1
    36    28    29    1
    37    28    30    1
    38    31    32    1
    39    31    33    1
    40    34    35    1
    41    34    36    1
    42    37    38    1
    43    37    39    1
    44    40    47   ar
    45    41    45   ar
    46    41    48   ar
    47    41    42    1
    48    43    47    1
    49    43    49    1
    50    43    44    1
    51    45    46    1
    52    47    48   ar
    53    49    51    1
    54    49    52    1
    55    49    50    1
    56    51    58   ar
    57    51    60   ar
    58    52    53    1
    59    52    54    1
    60    52    55    1
    61    56    62   ar
    62    56    64   ar
    63    56    57    1
    64    58    64   ar
    65    58    59    1
    66    60    62   ar
    67    60    61    1
    68    62    63    1
    69    64    65    1
@<TRIPOS>SUBSTRUCTURE
     1 RES1        1 GROUP             0 ****  ****    0  
@<TRIPOS>MOLECULE
LIGAND_00329
    65    69     1     0     0
SMALL
USER_CHARGES
****
Generated from the CSD

@<TRIPOS>ATOM
     1 C1      -2.3145  -4.2024 -16.4165   C.ar      1 RES1   0.0000
     2 H2      -2.9878  -4.9820 -16.7564   H         1 RES1   0.0000
     3 C3      -0.6355  -2.1871 -15.5497   C.ar      1 RES1   0.0000
     4 H4       0.0155  -1.3881 -15.2106   H         1 RES1   0.0000
     5 C5      -1.4759  -4.4469 -15.3332   C.ar      1 RES1   0.0000
     6 C6      -2.3122  -2.9815 -17.0675   C.ar      1 RES1   0.0000
     7 H7      -2.9627  -2.8035 -17.9172   H         1 RES1   0.0000
     8 C8      -1.4723  -2.0038 -16.6134   C.ar      1 RES1   0.0000
     9 C9      -0.6378  -3.4164 -14.9165   C.ar      1 RES1   0.0000
    10 H10      0.0331  -3.5757 -14.0801   H         1 RES1   0.0000
    11 C11     -1.4699  -5.7631 -14.6156   C.2       1 RES1   0.0000
    12 F12     -1.4687  -0.7987 -17.2454   F         1 RES1   0.0000
    13 N13     -1.3520  -7.9629 -14.1648   N.am      1 RES1   0.0000
    14 C14     -1.7426  -9.3966 -14.3845   C.3       1 RES1   0.0000
    15 H15     -1.3951  -9.6939 -15.3728   H         1 RES1   0.0000
    16 C16     -1.2167  -7.8034 -11.7572   C.3       1 RES1   0.0000
    17 H17     -1.9030  -8.4957 -11.2741   H         1 RES1   0.0000
    18 H18     -0.2834  -8.3293 -11.9474   H         1 RES1   0.0000
    19 H19     -1.0124  -6.9892 -11.0650   H         1 RES1   0.0000
    20 C20     -1.7513  -5.9390 -13.3057   C.2       1 RES1   0.0000
    21 C21     -2.0254  -4.9138 -12.2663   C.ar      1 RES1   0.0000
    22 O22     -1.0248  -7.3797 -16.3632   O.2       1 RES1   0.0000
    23 C23     -1.2291  -7.0528 -15.2014   C.2       1 RES1   0.0000
    24 N24     -1.7882  -7.2914 -13.0032   N.3       1 RES1   0.0000
    25 C25     -1.4337 -11.7586 -13.5767   C.3       1 RES1   0.0000
    26 H26     -0.9757 -12.3703 -12.8008   H         1 RES1   0.0000
    27 H27     -1.0696 -12.0772 -14.5523   H         1 RES1   0.0000
    28 C28     -3.6156 -11.0639 -14.5299   C.3       1 RES1   0.0000
    29 H29     -3.3174 -11.3744 -15.5302   H         1 RES1   0.0000
    30 H30     -4.6921 -11.1850 -14.4181   H         1 RES1   0.0000
    31 C31     -3.2549  -9.5991 -14.3335   C.3       1 RES1   0.0000
    32 H32     -3.7200  -9.0091 -15.1219   H         1 RES1   0.0000
    33 H33     -3.6262  -9.2677 -13.3649   H         1 RES1   0.0000
    34 C34     -1.0685 -10.3015 -13.3525   C.3       1 RES1   0.0000
    35 H35     -1.3901 -10.0042 -12.3555   H         1 RES1   0.0000
    36 H36      0.0117 -10.1896 -13.4338   H         1 RES1   0.0000
    37 N37     -2.9194 -11.9186 -13.5237   N.4       1 RES1   1.0000
    38 H38     -3.2429 -11.6613 -12.5967   H         1 RES1   0.0000
    39 H39     -3.1500 -12.8903 -13.7049   H         1 RES1   0.0000
    40 N40     -3.1660  -4.2176 -12.3926   N.ar      1 RES1   0.0000
    41 C41     -1.5085  -3.6809 -10.3247   C.ar      1 RES1   0.0000
    42 H42     -0.8414  -3.4750  -9.4941   H         1 RES1   0.0000
    43 N43     -4.5422  -2.5584 -11.6104   N.pl3     1 RES1   0.0000
    44 H44     -5.1368  -2.7555 -12.4153   H         1 RES1   0.0000
    45 C45     -1.1491  -4.6689 -11.2192   C.ar      1 RES1   0.0000
    46 H46     -0.2241  -5.2252 -11.1095   H         1 RES1   0.0000
    47 C47     -3.4120  -3.2702 -11.4733   C.ar      1 RES1   0.0000
    48 N48     -2.6338  -2.9618 -10.4257   N.ar      1 RES1   0.0000
    49 C49     -4.9425  -1.4752 -10.7127   C.3       1 RES1   0.0000
    50 H50     -4.9548  -1.8590  -9.6808   H         1 RES1   0.0000
    51 C51     -6.3187  -0.9308 -11.0417   C.ar      1 RES1   0.0000
    52 C52     -3.8872  -0.3798 -10.8106   C.3       1 RES1   0.0000
    53 H53     -4.3165   0.5921 -10.5764   H         1 RES1   0.0000
    54 H54     -3.0703  -0.5654 -10.1163   H         1 RES1   0.0000
    55 H55     -3.4734  -0.3336 -11.8158   H         1 RES1   0.0000
    56 C56     -8.8424   0.0734 -11.6604   C.ar      1 RES1   0.0000
    57 H57     -9.8255   0.4638 -11.9015   H         1 RES1   0.0000
    58 C58     -6.5771  -0.3780 -12.2877   C.ar      1 RES1   0.0000
    59 H59     -5.7865  -0.3360 -13.0297   H         1 RES1   0.0000
    60 C60     -7.3462  -0.9698 -10.1091   C.ar      1 RES1   0.0000
    61 H61     -7.1673  -1.3957  -9.1275   H         1 RES1   0.0000
    62 C62     -8.6002  -0.4706 -10.4182   C.ar      1 RES1   0.0000
    63 H63     -9.3939  -0.5084  -9.6796   H         1 RES1   0.0000
    64 C64     -7.8318   0.1200 -12.5953   C.ar      1 RES1   0.0000
    65 H65     -8.0190   0.5476 -13.5746   H         1 RES1   0.0000
@<TRIPOS>BOND
     1     1     5   ar
     2     1     6   ar
     3     1     2    1
     4     3     8   ar
     5     3     9   ar
     6     3     4    1
     7     5     9   ar
     8     5    11    1
     9     6     8   ar
    10     6     7    1
    11     8    12    1
    12     9    10    1
    13    11    20    2
    14    11    23    1
    15    13    14    1
    16    13    23   am
    17    13    24    1
    18    14    31    1
    19    14    34    1
    20    14    15    1
    21    16    24    1
    22    16    17    1
    23    16    18    1
    24    16    19    1
    25    20    21    1
    26    20    24    1
    27    21    40   ar
    28    21    45   ar
    29    22    23    2
    30    25    34    1
    31    25    37    1
    32    25    26    1
    33    25    27    1
    34    28    31    1
    35    28    37    1
    36    28    29    1
    37    28    30    1
    38    31    32    1
    39    31    33    1
    40    34    35    1
    41    34    36    1
    42    37    38    1
    43    37    39    1
    44    40    47   ar
    45    41    45   ar
    46    41    48   ar
    47    41    42    1
    48    43    47    1
    49    43    49    1
    50    43    44    1
    51    45    46    1
    52    47    48   ar
    53    49    51    1
    54    49    52    1
    55    49    50    1
    56    51    58   ar
    57    51    60   ar
    58    52    53    1
    59    52    54    1
    60    52    55    1
    61    56    62   ar
    62    56    64   ar
    63    56    57    1
    64    58    64   ar
    65    58    59    1
    66    60    62   ar
    67    60    61    1
    68    62    63    1
    69    64    65    1
@<TRIPOS>SUBSTRUCTURE
     1 RES1        1 GROUP             0 ****  ****    0  
@<TRIPOS>MOLECULE
LIGAND_00330
    65    69     1     0     0
SMALL
USER_CHARGES
****
Generated from the CSD

@<TRIPOS>ATOM
     1 C1      -3.0655  -4.4413 -16.2865   C.ar      1 RES1   0.0000
     2 H2      -3.6941  -5.3095 -16.4525   H         1 RES1   0.0000
     3 C3      -1.5027  -2.2042 -15.8563   C.ar      1 RES1   0.0000
     4 H4      -0.8982  -1.3193 -15.6872   H         1 RES1   0.0000
     5 C5      -2.0021  -4.5270 -15.3929   C.ar      1 RES1   0.0000
     6 C6      -3.3425  -3.2678 -16.9653   C.ar      1 RES1   0.0000
     7 H7      -4.1678  -3.2134 -17.6673   H         1 RES1   0.0000
     8 C8      -2.5529  -2.1778 -16.7291   C.ar      1 RES1   0.0000
     9 C9      -1.2283  -3.3870 -15.1946   C.ar      1 RES1   0.0000
    10 H10     -0.3881  -3.4214 -14.5105   H         1 RES1   0.0000
    11 C11     -1.6921  -5.7902 -14.6475   C.2       1 RES1   0.0000
    12 F12     -2.8228  -1.0187 -17.3890   F         1 RES1   0.0000
    13 N13     -1.1765  -7.9234 -14.1576   N.am      1 RES1   0.0000
    14 C14     -1.3718  -9.4081 -14.2753   C.3       1 RES1   0.0000
    15 H15     -1.1175  -9.7027 -15.2924   H         1 RES1   0.0000
    16 C16     -0.7209  -7.6242 -11.8031   C.3       1 RES1   0.0000
    17 H17     -1.2301  -8.3620 -11.1865   H         1 RES1   0.0000
    18 H18      0.2322  -8.0451 -12.1168   H         1 RES1   0.0000
    19 H19     -0.5197  -6.7490 -11.1890   H         1 RES1   0.0000
    20 C20     -1.7513  -5.9390 -13.3057   C.2       1 RES1   0.0000
    21 C21     -2.0254  -4.9138 -12.2663   C.ar      1 RES1   0.0000
    22 O22     -1.2630  -7.4104 -16.3958   O.2       1 RES1   0.0000
    23 C23     -1.3448  -7.0587 -15.2262   C.2       1 RES1   0.0000
    24 N24     -1.5376  -7.2652 -12.9630   N.3       1 RES1   0.0000
    25 C25     -0.6051 -11.6549 -13.4440   C.3       1 RES1   0.0000
    26 H26      0.0390 -12.1524 -12.7204   H         1 RES1   0.0000
    27 H27     -0.3298 -11.9675 -14.4502   H         1 RES1   0.0000
    28 C28     -2.9739 -11.3352 -14.1063   C.3       1 RES1   0.0000
    29 H29     -2.7675 -11.6506 -15.1280   H         1 RES1   0.0000
    30 H30     -3.9952 -11.6055 -13.8423   H         1 RES1   0.0000
    31 C31     -2.8158  -9.8254 -14.0084   C.3       1 RES1   0.0000
    32 H32     -3.4651  -9.3509 -14.7427   H         1 RES1   0.0000
    33 H33     -3.1011  -9.5015 -13.0086   H         1 RES1   0.0000
    34 C34     -0.4377 -10.1505 -13.3189   C.3       1 RES1   0.0000
    35 H35     -0.6654  -9.8517 -12.2968   H         1 RES1   0.0000
    36 H36      0.5927  -9.8872 -13.5531   H         1 RES1   0.0000
    37 N37     -2.0292 -12.0262 -13.1801   N.4       1 RES1   1.0000
    38 H38     -2.2620 -11.7708 -12.2258   H         1 RES1   0.0000
    39 H39     -2.1324 -13.0292 -13.2967   H         1 RES1   0.0000
    40 N40     -3.1488  -5.0691 -11.5482   N.ar      1 RES1   0.0000
    41 C41     -1.5487  -2.9443 -11.0618   C.ar      1 RES1   0.0000
    42 H42     -0.8989  -2.0972 -10.8681   H         1 RES1   0.0000
    43 N43     -4.5543  -4.2769  -9.9188   N.pl3     1 RES1   0.0000
    44 H44     -4.7536  -3.5922  -9.1896   H         1 RES1   0.0000
    45 C45     -1.1781  -3.8376 -12.0468   C.ar      1 RES1   0.0000
    46 H46     -0.2689  -3.7025 -12.6231   H         1 RES1   0.0000
    47 C47     -3.4203  -4.1344 -10.6232   C.ar      1 RES1   0.0000
    48 N48     -2.6660  -3.0643 -10.3331   N.ar      1 RES1   0.0000
    49 C49     -5.4907  -5.3877 -10.0887   C.3       1 RES1   0.0000
    50 H50     -5.7385  -5.4795 -11.1575   H         1 RES1   0.0000
    51 C51     -6.7761  -5.1842  -9.3110   C.ar      1 RES1   0.0000
    52 C52     -4.7823  -6.6618  -9.6434   C.3       1 RES1   0.0000
    53 H53     -5.5000  -7.4581  -9.4581   H         1 RES1   0.0000
    54 H54     -4.0854  -7.0043 -10.4055   H         1 RES1   0.0000
    55 H55     -4.2232  -6.4899  -8.7260   H         1 RES1   0.0000
    56 C56     -9.1427  -4.8244  -7.8861   C.ar      1 RES1   0.0000
    57 H57    -10.0640  -4.6844  -7.3305   H         1 RES1   0.0000
    58 C58     -7.7334  -6.1871  -9.2594   C.ar      1 RES1   0.0000
    59 H59     -7.5582  -7.1224  -9.7807   H         1 RES1   0.0000
    60 C60     -7.0257  -3.9959  -8.6382   C.ar      1 RES1   0.0000
    61 H61     -6.2927  -3.1966  -8.6656   H         1 RES1   0.0000
    62 C62     -8.2023  -3.8187  -7.9300   C.ar      1 RES1   0.0000
    63 H63     -8.3836  -2.8849  -7.4083   H         1 RES1   0.0000
    64 C64     -8.9090  -6.0084  -8.5502   C.ar      1 RES1   0.0000
    65 H65     -9.6473  -6.8027  -8.5176   H         1 RES1   0.0000
@<TRIPOS>BOND
     1     1     5   ar
     2     1     6   ar
     3     1     2    1
     4     3     8   ar
     5     3     9   ar
     6     3     4    1
     7     5     9   ar
     8     5    11    1
     9     6     8   ar
    10     6     7    1
    11     8    12    1
    12     9    10    1
    13    11    20    2
    14    11    23    1
    15    13    14    1
    16    13    23   am
    17    13    24    1
    18    14    31    1
    19    14    34    1
    20    14    15    1
    21    16    24    1
    22    16    17    1
    23    16    18    1
    24    16    19    1
    25    20    21    1
    26    20    24    1
    27    21    40   ar
    28    21    45   ar
    29    22    23    2
    30    25    34    1
    31    25    37    1
    32    25    26    1
    33    25    27    1
    34    28    31    1
    35    28    37    1
    36    28    29    1
    37    28    30    1
    38    31    32    1
    39    31    33    1
    40    34    35    1
    41    34    36    1
    42    37    38    1
    43    37    39    1
    44    40    47   ar
    45    41    45   ar
    46    41    48   ar
    47    41    42    1
    48    43    47    1
    49    43    49    1
    50    43    44    1
    51    45    46    1
    52    47    48   ar
    53    49    51    1
    54    49    52    1
    55    49    50    1
    56    51    58   ar
    57    51    60   ar
    58    52    53    1
    59    52    54    1
    60    52    55    1
    61    56    62   ar
    62    56    64   ar
    63    56    57    1
    64    58    64   ar
    65    58    59    1
    66    60    62   ar
    67    60    61    1
    68    62    63    1
    69    64    65    1
@<TRIPOS>SUBSTRUCTURE
     1 RES1        1 GROUP             0 ****  ****    0  
@<TRIPOS>MOLECULE
LIGAND_00331
    65    69     1     0     0
SMALL
USER_CHARGES
****
Generated from the CSD

@<TRIPOS>ATOM
     1 C1      -3.0657  -4.4413 -16.2865   C.ar      1 RES1   0.0000
     2 H2      -3.6942  -5.3096 -16.4524   H         1 RES1   0.0000
     3 C3      -1.5029  -2.2043 -15.8564   C.ar      1 RES1   0.0000
     4 H4      -0.8984  -1.3193 -15.6873   H         1 RES1   0.0000
     5 C5      -2.0022  -4.5271 -15.3929   C.ar      1 RES1   0.0000
     6 C6      -3.3427  -3.2679 -16.9653   C.ar      1 RES1   0.0000
     7 H7      -4.1681  -3.2135 -17.6672   H         1 RES1   0.0000
     8 C8      -2.5532  -2.1779 -16.7291   C.ar      1 RES1   0.0000
     9 C9      -1.2284  -3.3870 -15.1947   C.ar      1 RES1   0.0000
    10 H10     -0.3882  -3.4214 -14.5106   H         1 RES1   0.0000
    11 C11     -1.6922  -5.7902 -14.6475   C.2       1 RES1   0.0000
    12 F12     -2.8232  -1.0188 -17.3890   F         1 RES1   0.0000
    13 N13     -1.1765  -7.9233 -14.1576   N.am      1 RES1   0.0000
    14 C14     -1.3717  -9.4081 -14.2753   C.3       1 RES1   0.0000
    15 H15     -1.1174  -9.7027 -15.2924   H         1 RES1   0.0000
    16 C16     -0.7208  -7.6242 -11.8031   C.3       1 RES1   0.0000
    17 H17     -1.2300  -8.3619 -11.1865   H         1 RES1   0.0000
    18 H18      0.2323  -8.0450 -12.1169   H         1 RES1   0.0000
    19 H19     -0.5196  -6.7489 -11.1890   H         1 RES1   0.0000
    20 C20     -1.7513  -5.9390 -13.3057   C.2       1 RES1   0.0000
    21 C21     -2.0254  -4.9138 -12.2663   C.ar      1 RES1   0.0000
    22 O22     -1.2630  -7.4104 -16.3958   O.2       1 RES1   0.0000
    23 C23     -1.3448  -7.0587 -15.2262   C.2       1 RES1   0.0000
    24 N24     -1.5375  -7.2652 -12.9630   N.3       1 RES1   0.0000
    25 C25     -0.6049 -11.6549 -13.4440   C.3       1 RES1   0.0000
    26 H26      0.0392 -12.1523 -12.7203   H         1 RES1   0.0000
    27 H27     -0.3296 -11.9675 -14.4502   H         1 RES1   0.0000
    28 C28     -2.9737 -11.3353 -14.1063   C.3       1 RES1   0.0000
    29 H29     -2.7673 -11.6507 -15.1280   H         1 RES1   0.0000
    30 H30     -3.9950 -11.6056 -13.8422   H         1 RES1   0.0000
    31 C31     -2.8157  -9.8254 -14.0084   C.3       1 RES1   0.0000
    32 H32     -3.4651  -9.3510 -14.7427   H         1 RES1   0.0000
    33 H33     -3.1010  -9.5016 -13.0085   H         1 RES1   0.0000
    34 C34     -0.4376 -10.1505 -13.3189   C.3       1 RES1   0.0000
    35 H35     -0.6653  -9.8516 -12.2968   H         1 RES1   0.0000
    36 H36      0.5928  -9.8871 -13.5531   H         1 RES1   0.0000
    37 N37     -2.0290 -12.0262 -13.1801   N.4       1 RES1   1.0000
    38 H38     -2.2618 -11.7708 -12.2257   H         1 RES1   0.0000
    39 H39     -2.1321 -13.0292 -13.2966   H         1 RES1   0.0000
    40 N40     -3.1488  -5.0691 -11.5482   N.ar      1 RES1   0.0000
    41 C41     -1.5487  -2.9443 -11.0618   C.ar      1 RES1   0.0000
    42 H42     -0.8989  -2.0972 -10.8681   H         1 RES1   0.0000
    43 N43     -4.5543  -4.2769  -9.9188   N.pl3     1 RES1   0.0000
    44 H44     -5.1621  -5.0642 -10.1449   H         1 RES1   0.0000
    45 C45     -1.1781  -3.8376 -12.0468   C.ar      1 RES1   0.0000
    46 H46     -0.2689  -3.7025 -12.6231   H         1 RES1   0.0000
    47 C47     -3.4203  -4.1344 -10.6232   C.ar      1 RES1   0.0000
    48 N48     -2.6660  -3.0643 -10.3331   N.ar      1 RES1   0.0000
    49 C49     -5.0039  -3.3387  -8.8905   C.3       1 RES1   0.0000
    50 H50     -4.1774  -3.1683  -8.1833   H         1 RES1   0.0000
    51 C51     -6.2008  -3.8577  -8.1182   C.ar      1 RES1   0.0000
    52 C52     -5.3325  -2.0197  -9.5800   C.3       1 RES1   0.0000
    53 H53     -5.9573  -1.3964  -8.9437   H         1 RES1   0.0000
    54 H54     -4.4247  -1.4660  -9.8102   H         1 RES1   0.0000
    55 H55     -5.8671  -2.1957 -10.5112   H         1 RES1   0.0000
    56 C56     -8.4012  -4.7976  -6.6916   C.ar      1 RES1   0.0000
    57 H57     -9.2587  -5.1636  -6.1366   H         1 RES1   0.0000
    58 C58     -6.8356  -3.0547  -7.1815   C.ar      1 RES1   0.0000
    59 H59     -6.4701  -2.0490  -7.0023   H         1 RES1   0.0000
    60 C60     -6.6860  -5.1414  -8.3265   C.ar      1 RES1   0.0000
    61 H61     -6.2049  -5.7883  -9.0526   H         1 RES1   0.0000
    62 C62     -7.7800  -5.6072  -7.6170   C.ar      1 RES1   0.0000
    63 H63     -8.1486  -6.6126  -7.7908   H         1 RES1   0.0000
    64 C64     -7.9298  -3.5218  -6.4735   C.ar      1 RES1   0.0000
    65 H65     -8.4167  -2.8814  -5.7455   H         1 RES1   0.0000
@<TRIPOS>BOND
     1     1     5   ar
     2     1     6   ar
     3     1     2    1
     4     3     8   ar
     5     3     9   ar
     6     3     4    1
     7     5     9   ar
     8     5    11    1
     9     6     8   ar
    10     6     7    1
    11     8    12    1
    12     9    10    1
    13    11    20    2
    14    11    23    1
    15    13    14    1
    16    13    23   am
    17    13    24    1
    18    14    31    1
    19    14    34    1
    20    14    15    1
    21    16    24    1
    22    16    17    1
    23    16    18    1
    24    16    19    1
    25    20    21    1
    26    20    24    1
    27    21    40   ar
    28    21    45   ar
    29    22    23    2
    30    25    34    1
    31    25    37    1
    32    25    26    1
    33    25    27    1
    34    28    31    1
    35    28    37    1
    36    28    29    1
    37    28    30    1
    38    31    32    1
    39    31    33    1
    40    34    35    1
    41    34    36    1
    42    37    38    1
    43    37    39    1
    44    40    47   ar
    45    41    45   ar
    46    41    48   ar
    47    41    42    1
    48    43    47    1
    49    43    49    1
    50    43    44    1
    51    45    46    1
    52    47    48   ar
    53    49    51    1
    54    49    52    1
    55    49    50    1
    56    51    58   ar
    57    51    60   ar
    58    52    53    1
    59    52    54    1
    60    52    55    1
    61    56    62   ar
    62    56    64   ar
    63    56    57    1
    64    58    64   ar
    65    58    59    1
    66    60    62   ar
    67    60    61    1
    68    62    63    1
    69    64    65    1
@<TRIPOS>SUBSTRUCTURE
     1 RES1        1 GROUP             0 ****  ****    0  
@<TRIPOS>MOLECULE
LIGAND_00332
    65    69     1     0     0
SMALL
USER_CHARGES
****
Generated from the CSD

@<TRIPOS>ATOM
     1 C1       0.3359  -4.0444 -15.7323   C.ar      1 RES1   0.0000
     2 H2      -0.3718  -4.4422 -16.4516   H         1 RES1   0.0000
     3 C3       2.1186  -2.9892 -13.9046   C.ar      1 RES1   0.0000
     4 H4       2.8149  -2.5644 -13.1891   H         1 RES1   0.0000
     5 C5       0.5126  -4.6946 -14.5146   C.ar      1 RES1   0.0000
     6 C6       1.0410  -2.8953 -16.0437   C.ar      1 RES1   0.0000
     7 H7       0.9036  -2.4008 -16.9995   H         1 RES1   0.0000
     8 C8       1.9135  -2.3965 -15.1178   C.ar      1 RES1   0.0000
     9 C9       1.4177  -4.1446 -13.6113   C.ar      1 RES1   0.0000
    10 H10      1.5844  -4.6299 -12.6564   H         1 RES1   0.0000
    11 C11     -0.2467  -5.9380 -14.1617   C.2       1 RES1   0.0000
    12 F12      2.6063  -1.2636 -15.4151   F         1 RES1   0.0000
    13 N13     -1.2406  -7.9410 -14.1570   N.am      1 RES1   0.0000
    14 C14     -1.5106  -9.4109 -14.3092   C.3       1 RES1   0.0000
    15 H15     -0.9491  -9.7701 -15.1704   H         1 RES1   0.0000
    16 C16     -2.9634  -7.4981 -12.4712   C.3       1 RES1   0.0000
    17 H17     -3.2161  -6.7696 -11.7036   H         1 RES1   0.0000
    18 H18     -3.7034  -7.4236 -13.2653   H         1 RES1   0.0000
    19 H19     -3.0343  -8.4914 -12.0332   H         1 RES1   0.0000
    20 C20     -1.0688  -6.0097 -13.0848   C.2       1 RES1   0.0000
    21 C21     -1.4087  -4.9383 -12.1137   C.ar      1 RES1   0.0000
    22 O22      0.2750  -7.5989 -15.8623   O.2       1 RES1   0.0000
    23 C23     -0.3156  -7.1911 -14.8707   C.2       1 RES1   0.0000
    24 N24     -1.6169  -7.2574 -12.9912   N.3       1 RES1   0.0000
    25 C25     -1.2720 -11.6680 -13.2251   C.3       1 RES1   0.0000
    26 H26     -0.9608 -12.1784 -12.3148   H         1 RES1   0.0000
    27 H27     -0.6961 -12.0463 -14.0684   H         1 RES1   0.0000
    28 C28     -3.2328 -11.2030 -14.6712   C.3       1 RES1   0.0000
    29 H29     -2.7164 -11.5797 -15.5528   H         1 RES1   0.0000
    30 H30     -4.3020 -11.3838 -14.7719   H         1 RES1   0.0000
    31 C31     -2.9887  -9.7063 -14.5509   C.3       1 RES1   0.0000
    32 H32     -3.3033  -9.2190 -15.4726   H         1 RES1   0.0000
    33 H33     -3.5708  -9.3164 -13.7172   H         1 RES1   0.0000
    34 C34     -1.0290 -10.1762 -13.0760   C.3       1 RES1   0.0000
    35 H35     -1.5671  -9.8145 -12.2011   H         1 RES1   0.0000
    36 H36      0.0378 -10.0017 -12.9440   H         1 RES1   0.0000
    37 N37     -2.7266 -11.9193 -13.4636   N.4       1 RES1   1.0000
    38 H38     -3.2498 -11.6036 -12.6531   H         1 RES1   0.0000
    39 H39     -2.8693 -12.9161 -13.5911   H         1 RES1   0.0000
    40 N40     -1.9952  -3.8381 -12.6110   N.ar      1 RES1   0.0000
    41 C41     -1.4794  -3.9813  -9.9606   C.ar      1 RES1   0.0000
    42 H42     -1.2748  -4.0481  -8.8971   H         1 RES1   0.0000
    43 N43     -2.8508  -1.7422 -12.2457   N.pl3     1 RES1   0.0000
    44 H44     -2.9713  -1.6800 -13.2566   H         1 RES1   0.0000
    45 C45     -1.1280  -5.0504 -10.7598   C.ar      1 RES1   0.0000
    46 H46     -0.6528  -5.9349 -10.3486   H         1 RES1   0.0000
    47 C47     -2.2835  -2.8520 -11.7465   C.ar      1 RES1   0.0000
    48 N48     -2.0575  -2.8659 -10.4247   N.ar      1 RES1   0.0000
    49 C49     -3.2490  -0.5904 -11.4369   C.3       1 RES1   0.0000
    50 H50     -2.5746  -0.5186 -10.5696   H         1 RES1   0.0000
    51 C51     -4.6741  -0.7037 -10.9321   C.ar      1 RES1   0.0000
    52 C52     -3.0736   0.6585 -12.2929   C.3       1 RES1   0.0000
    53 H53     -3.3261   1.5530 -11.7274   H         1 RES1   0.0000
    54 H54     -2.0449   0.7529 -12.6345   H         1 RES1   0.0000
    55 H55     -3.7186   0.6181 -13.1682   H         1 RES1   0.0000
    56 C56     -7.2963  -0.8989 -10.0122   C.ar      1 RES1   0.0000
    57 H57     -8.3177  -0.9754  -9.6544   H         1 RES1   0.0000
    58 C58     -5.6211   0.2493 -11.2787   C.ar      1 RES1   0.0000
    59 H59     -5.3366   1.0807 -11.9152   H         1 RES1   0.0000
    60 C60     -5.0628  -1.7557 -10.1142   C.ar      1 RES1   0.0000
    61 H61     -4.3393  -2.5121  -9.8284   H         1 RES1   0.0000
    62 C62     -6.3666  -1.8516  -9.6579   C.ar      1 RES1   0.0000
    63 H63     -6.6563  -2.6798  -9.0198   H         1 RES1   0.0000
    64 C64     -6.9245   0.1514 -10.8222   C.ar      1 RES1   0.0000
    65 H65     -7.6541   0.9035 -11.1032   H         1 RES1   0.0000
@<TRIPOS>BOND
     1     1     5   ar
     2     1     6   ar
     3     1     2    1
     4     3     8   ar
     5     3     9   ar
     6     3     4    1
     7     5     9   ar
     8     5    11    1
     9     6     8   ar
    10     6     7    1
    11     8    12    1
    12     9    10    1
    13    11    20    2
    14    11    23    1
    15    13    14    1
    16    13    23   am
    17    13    24    1
    18    14    31    1
    19    14    34    1
    20    14    15    1
    21    16    24    1
    22    16    17    1
    23    16    18    1
    24    16    19    1
    25    20    21    1
    26    20    24    1
    27    21    40   ar
    28    21    45   ar
    29    22    23    2
    30    25    34    1
    31    25    37    1
    32    25    26    1
    33    25    27    1
    34    28    31    1
    35    28    37    1
    36    28    29    1
    37    28    30    1
    38    31    32    1
    39    31    33    1
    40    34    35    1
    41    34    36    1
    42    37    38    1
    43    37    39    1
    44    40    47   ar
    45    41    45   ar
    46    41    48   ar
    47    41    42    1
    48    43    47    1
    49    43    49    1
    50    43    44    1
    51    45    46    1
    52    47    48   ar
    53    49    51    1
    54    49    52    1
    55    49    50    1
    56    51    58   ar
    57    51    60   ar
    58    52    53    1
    59    52    54    1
    60    52    55    1
    61    56    62   ar
    62    56    64   ar
    63    56    57    1
    64    58    64   ar
    65    58    59    1
    66    60    62   ar
    67    60    61    1
    68    62    63    1
    69    64    65    1
@<TRIPOS>SUBSTRUCTURE
     1 RES1        1 GROUP             0 ****  ****    0  
@<TRIPOS>MOLECULE
LIGAND_00333
    65    69     1     0     0
SMALL
USER_CHARGES
****
Generated from the CSD

@<TRIPOS>ATOM
     1 C1      -0.3500  -3.4834 -14.8861   C.ar      1 RES1   0.0000
     2 H2      -1.4306  -3.4897 -14.7927   H         1 RES1   0.0000
     3 C3       2.4039  -3.4292 -15.0976   C.ar      1 RES1   0.0000
     4 H4       3.4856  -3.3979 -15.1756   H         1 RES1   0.0000
     5 C5       0.3667  -4.6461 -14.6193   C.ar      1 RES1   0.0000
     6 C6       0.2880  -2.3151 -15.2635   C.ar      1 RES1   0.0000
     7 H7      -0.2800  -1.4162 -15.4788   H         1 RES1   0.0000
     8 C8       1.6513  -2.3194 -15.3567   C.ar      1 RES1   0.0000
     9 C9       1.7530  -4.5940 -14.7346   C.ar      1 RES1   0.0000
    10 H10      2.3411  -5.4837 -14.5406   H         1 RES1   0.0000
    11 C11     -0.3102  -5.9181 -14.2058   C.2       1 RES1   0.0000
    12 F12      2.2860  -1.1723 -15.7220   F         1 RES1   0.0000
    13 N13     -1.2022  -7.9666 -14.1154   N.am      1 RES1   0.0000
    14 C14     -1.4068  -9.4504 -14.2294   C.3       1 RES1   0.0000
    15 H15     -0.8679  -9.7992 -15.1090   H         1 RES1   0.0000
    16 C16     -2.8518  -7.5767 -12.3454   C.3       1 RES1   0.0000
    17 H17     -3.0789  -6.8737 -11.5466   H         1 RES1   0.0000
    18 H18     -3.6420  -7.5094 -13.0904   H         1 RES1   0.0000
    19 H19     -2.8639  -8.5811 -11.9275   H         1 RES1   0.0000
    20 C20     -1.0688  -6.0097 -13.0848   C.2       1 RES1   0.0000
    21 C21     -1.4087  -4.9383 -12.1137   C.ar      1 RES1   0.0000
    22 O22      0.2011  -7.5829 -15.9058   O.2       1 RES1   0.0000
    23 C23     -0.3550  -7.1860 -14.8902   C.2       1 RES1   0.0000
    24 N24     -1.5487  -7.2806 -12.9418   N.3       1 RES1   0.0000
    25 C25     -1.0102 -11.6718 -13.1182   C.3       1 RES1   0.0000
    26 H26     -0.6338 -12.1488 -12.2144   H         1 RES1   0.0000
    27 H27     -0.4552 -12.0386 -13.9803   H         1 RES1   0.0000
    28 C28     -3.0545 -11.3295 -14.4805   C.3       1 RES1   0.0000
    29 H29     -2.5605 -11.6983 -15.3783   H         1 RES1   0.0000
    30 H30     -4.1170 -11.5631 -14.5289   H         1 RES1   0.0000
    31 C31     -2.8783  -9.8208 -14.3977   C.3       1 RES1   0.0000
    32 H32     -3.2573  -9.3672 -15.3123   H         1 RES1   0.0000
    33 H33     -3.4405  -9.4428 -13.5451   H         1 RES1   0.0000
    34 C34     -0.8336 -10.1675 -13.0065   C.3       1 RES1   0.0000
    35 H35     -1.3486  -9.8147 -12.1142   H         1 RES1   0.0000
    36 H36      0.2283  -9.9396 -12.9266   H         1 RES1   0.0000
    37 N37     -2.4601 -11.9969 -13.2852   N.4       1 RES1   1.0000
    38 H38     -2.9610 -11.6907 -12.4572   H         1 RES1   0.0000
    39 H39     -2.5598 -13.0017 -13.3887   H         1 RES1   0.0000
    40 N40     -0.3887  -4.4058 -11.4225   N.ar      1 RES1   0.0000
    41 C41     -2.9021  -3.5162 -10.9716   C.ar      1 RES1   0.0000
    42 H42     -3.9125  -3.1599 -10.8002   H         1 RES1   0.0000
    43 N43      0.3295  -2.9360  -9.8156   N.pl3     1 RES1   0.0000
    44 H44      0.1247  -2.1679  -9.1766   H         1 RES1   0.0000
    45 C45     -2.7122  -4.5088 -11.9118   C.ar      1 RES1   0.0000
    46 H46     -3.5434  -4.9341 -12.4645   H         1 RES1   0.0000
    47 C47     -0.6870  -3.4545 -10.5230   C.ar      1 RES1   0.0000
    48 N48     -1.9089  -2.9693 -10.2586   N.ar      1 RES1   0.0000
    49 C49      1.7226  -3.3611  -9.9503   C.3       1 RES1   0.0000
    50 H50      1.8904  -3.6960 -10.9856   H         1 RES1   0.0000
    51 C51      2.0728  -4.4992  -9.0120   C.ar      1 RES1   0.0000
    52 C52      2.6044  -2.1466  -9.6841   C.3       1 RES1   0.0000
    53 H53      3.6559  -2.3992  -9.8032   H         1 RES1   0.0000
    54 H54      2.3698  -1.3387 -10.3740   H         1 RES1   0.0000
    55 H55      2.4572  -1.7798  -8.6704   H         1 RES1   0.0000
    56 C56      2.7271  -6.5817  -7.2811   C.ar      1 RES1   0.0000
    57 H57      2.9813  -7.3926  -6.6066   H         1 RES1   0.0000
    58 C58      3.0700  -4.3445  -8.0597   C.ar      1 RES1   0.0000
    59 H59      3.6015  -3.4012  -7.9889   H         1 RES1   0.0000
    60 C60      1.4101  -5.7168  -9.0842   C.ar      1 RES1   0.0000
    61 H61      0.6279  -5.8619  -9.8219   H         1 RES1   0.0000
    62 C62      1.7361  -6.7509  -8.2229   C.ar      1 RES1   0.0000
    63 H63      1.2092  -7.6968  -8.2905   H         1 RES1   0.0000
    64 C64      3.3941  -5.3792  -7.1990   C.ar      1 RES1   0.0000
    65 H65      4.1750  -5.2425  -6.4583   H         1 RES1   0.0000
@<TRIPOS>BOND
     1     1     5   ar
     2     1     6   ar
     3     1     2    1
     4     3     8   ar
     5     3     9   ar
     6     3     4    1
     7     5     9   ar
     8     5    11    1
     9     6     8   ar
    10     6     7    1
    11     8    12    1
    12     9    10    1
    13    11    20    2
    14    11    23    1
    15    13    14    1
    16    13    23   am
    17    13    24    1
    18    14    31    1
    19    14    34    1
    20    14    15    1
    21    16    24    1
    22    16    17    1
    23    16    18    1
    24    16    19    1
    25    20    21    1
    26    20    24    1
    27    21    40   ar
    28    21    45   ar
    29    22    23    2
    30    25    34    1
    31    25    37    1
    32    25    26    1
    33    25    27    1
    34    28    31    1
    35    28    37    1
    36    28    29    1
    37    28    30    1
    38    31    32    1
    39    31    33    1
    40    34    35    1
    41    34    36    1
    42    37    38    1
    43    37    39    1
    44    40    47   ar
    45    41    45   ar
    46    41    48   ar
    47    41    42    1
    48    43    47    1
    49    43    49    1
    50    43    44    1
    51    45    46    1
    52    47    48   ar
    53    49    51    1
    54    49    52    1
    55    49    50    1
    56    51    58   ar
    57    51    60   ar
    58    52    53    1
    59    52    54    1
    60    52    55    1
    61    56    62   ar
    62    56    64   ar
    63    56    57    1
    64    58    64   ar
    65    58    59    1
    66    60    62   ar
    67    60    61    1
    68    62    63    1
    69    64    65    1
@<TRIPOS>SUBSTRUCTURE
     1 RES1        1 GROUP             0 ****  ****    0  
@<TRIPOS>MOLECULE
LIGAND_00334
    65    69     1     0     0
SMALL
USER_CHARGES
****
Generated from the CSD

@<TRIPOS>ATOM
     1 C1       0.0065  -4.0101 -15.8473   C.ar      1 RES1   0.0000
     2 H2      -0.7393  -4.4549 -16.4973   H         1 RES1   0.0000
     3 C3       1.8834  -2.8366 -14.1945   C.ar      1 RES1   0.0000
     4 H4       2.6160  -2.3656 -13.5475   H         1 RES1   0.0000
     5 C5       0.3270  -4.6348 -14.6456   C.ar      1 RES1   0.0000
     6 C6       0.6159  -2.8280 -16.2290   C.ar      1 RES1   0.0000
     7 H7       0.3665  -2.3535 -17.1722   H         1 RES1   0.0000
     8 C8       1.5383  -2.2709 -15.3887   C.ar      1 RES1   0.0000
     9 C9       1.2770  -4.0250 -13.8311   C.ar      1 RES1   0.0000
    10 H10      1.5549  -4.4887 -12.8915   H         1 RES1   0.0000
    11 C11     -0.3275  -5.9135 -14.2170   C.2       1 RES1   0.0000
    12 F12      2.1377  -1.1054 -15.7552   F         1 RES1   0.0000
    13 N13     -1.1915  -7.9729 -14.1047   N.am      1 RES1   0.0000
    14 C14     -1.3785  -9.4597 -14.2092   C.3       1 RES1   0.0000
    15 H15     -0.8490  -9.8053 -15.0958   H         1 RES1   0.0000
    16 C16     -2.8207  -7.5961 -12.3131   C.3       1 RES1   0.0000
    17 H17     -3.0491  -6.8878 -11.5194   H         1 RES1   0.0000
    18 H18     -3.6212  -7.5499 -13.0486   H         1 RES1   0.0000
    19 H19     -2.8114  -8.5957 -11.8839   H         1 RES1   0.0000
    20 C20     -1.0688  -6.0097 -13.0848   C.2       1 RES1   0.0000
    21 C21     -1.4087  -4.9383 -12.1137   C.ar      1 RES1   0.0000
    22 O22      0.1811  -7.5794 -15.9167   O.2       1 RES1   0.0000
    23 C23     -0.3655  -7.1850 -14.8949   C.2       1 RES1   0.0000
    24 N24     -1.5302  -7.2860 -12.9293   N.3       1 RES1   0.0000
    25 C25     -0.9354 -11.6709 -13.0951   C.3       1 RES1   0.0000
    26 H26     -0.5387 -12.1389 -12.1954   H         1 RES1   0.0000
    27 H27     -0.3893 -12.0342 -13.9644   H         1 RES1   0.0000
    28 C28     -3.0052 -11.3612 -14.4263   C.3       1 RES1   0.0000
    29 H29     -2.5207 -11.7274 -15.3302   H         1 RES1   0.0000
    30 H30     -4.0653 -11.6088 -14.4569   H         1 RES1   0.0000
    31 C31     -2.8475  -9.8499 -14.3527   C.3       1 RES1   0.0000
    32 H32     -3.2468  -9.4053 -15.2630   H         1 RES1   0.0000
    33 H33     -3.4010  -9.4755 -13.4928   H         1 RES1   0.0000
    34 C34     -0.7767 -10.1639 -12.9925   C.3       1 RES1   0.0000
    35 H35     -1.2822  -9.8139 -12.0936   H         1 RES1   0.0000
    36 H36      0.2832  -9.9218 -12.9304   H         1 RES1   0.0000
    37 N37     -2.3834 -12.0155 -13.2377   N.4       1 RES1   1.0000
    38 H38     -2.8752 -11.7122 -12.4032   H         1 RES1   0.0000
    39 H39     -2.4716 -13.0219 -13.3354   H         1 RES1   0.0000
    40 N40     -0.3887  -4.4058 -11.4225   N.ar      1 RES1   0.0000
    41 C41     -2.9021  -3.5162 -10.9716   C.ar      1 RES1   0.0000
    42 H42     -3.9125  -3.1599 -10.8002   H         1 RES1   0.0000
    43 N43      0.3295  -2.9360  -9.8156   N.pl3     1 RES1   0.0000
    44 H44      1.2584  -3.3351  -9.9502   H         1 RES1   0.0000
    45 C45     -2.7122  -4.5088 -11.9118   C.ar      1 RES1   0.0000
    46 H46     -3.5434  -4.9341 -12.4645   H         1 RES1   0.0000
    47 C47     -0.6870  -3.4545 -10.5230   C.ar      1 RES1   0.0000
    48 N48     -1.9089  -2.9693 -10.2586   N.ar      1 RES1   0.0000
    49 C49      0.1777  -1.8771  -8.8179   C.3       1 RES1   0.0000
    50 H50     -0.8200  -1.9642  -8.3606   H         1 RES1   0.0000
    51 C51      0.3136  -0.4922  -9.4197   C.ar      1 RES1   0.0000
    52 C52      1.2285  -2.1056  -7.7377   C.3       1 RES1   0.0000
    53 H53      1.1398  -1.3614  -6.9491   H         1 RES1   0.0000
    54 H54      1.1150  -3.0901  -7.2887   H         1 RES1   0.0000
    55 H55      2.2306  -2.0376  -8.1560   H         1 RES1   0.0000
    56 C56      0.5754   2.0552 -10.5162   C.ar      1 RES1   0.0000
    57 H57      0.6777   3.0470 -10.9439   H         1 RES1   0.0000
    58 C58      1.3103   0.3692  -8.9845   C.ar      1 RES1   0.0000
    59 H59      1.9955   0.0469  -8.2074   H         1 RES1   0.0000
    60 C60     -0.5521  -0.0546 -10.4127   C.ar      1 RES1   0.0000
    61 H61     -1.3404  -0.7100 -10.7679   H         1 RES1   0.0000
    62 C62     -0.4205   1.2117 -10.9571   C.ar      1 RES1   0.0000
    63 H63     -1.1040   1.5400 -11.7331   H         1 RES1   0.0000
    64 C64      1.4408   1.6348  -9.5304   C.ar      1 RES1   0.0000
    65 H65      2.2264   2.2965  -9.1810   H         1 RES1   0.0000
@<TRIPOS>BOND
     1     1     5   ar
     2     1     6   ar
     3     1     2    1
     4     3     8   ar
     5     3     9   ar
     6     3     4    1
     7     5     9   ar
     8     5    11    1
     9     6     8   ar
    10     6     7    1
    11     8    12    1
    12     9    10    1
    13    11    20    2
    14    11    23    1
    15    13    14    1
    16    13    23   am
    17    13    24    1
    18    14    31    1
    19    14    34    1
    20    14    15    1
    21    16    24    1
    22    16    17    1
    23    16    18    1
    24    16    19    1
    25    20    21    1
    26    20    24    1
    27    21    40   ar
    28    21    45   ar
    29    22    23    2
    30    25    34    1
    31    25    37    1
    32    25    26    1
    33    25    27    1
    34    28    31    1
    35    28    37    1
    36    28    29    1
    37    28    30    1
    38    31    32    1
    39    31    33    1
    40    34    35    1
    41    34    36    1
    42    37    38    1
    43    37    39    1
    44    40    47   ar
    45    41    45   ar
    46    41    48   ar
    47    41    42    1
    48    43    47    1
    49    43    49    1
    50    43    44    1
    51    45    46    1
    52    47    48   ar
    53    49    51    1
    54    49    52    1
    55    49    50    1
    56    51    58   ar
    57    51    60   ar
    58    52    53    1
    59    52    54    1
    60    52    55    1
    61    56    62   ar
    62    56    64   ar
    63    56    57    1
    64    58    64   ar
    65    58    59    1
    66    60    62   ar
    67    60    61    1
    68    62    63    1
    69    64    65    1
@<TRIPOS>SUBSTRUCTURE
     1 RES1        1 GROUP             0 ****  ****    0  
@<TRIPOS>MOLECULE
LIGAND_00335
    65    69     1     0     0
SMALL
USER_CHARGES
****
Generated from the CSD

@<TRIPOS>ATOM
     1 C1       1.3635  -5.6372 -11.3201   C.ar      1 RES1   0.0000
     2 H2       1.6392  -6.6844 -11.2578   H         1 RES1   0.0000
     3 C3       0.7066  -2.9585 -11.4786   C.ar      1 RES1   0.0000
     4 H4       0.4595  -1.9038 -11.5393   H         1 RES1   0.0000
     5 C5       0.4604  -5.2241 -12.2950   C.ar      1 RES1   0.0000
     6 C6       1.9232  -4.7378 -10.4299   C.ar      1 RES1   0.0000
     7 H7       2.6190  -5.0709  -9.6671   H         1 RES1   0.0000
     8 C8       1.5804  -3.4193 -10.5355   C.ar      1 RES1   0.0000
     9 C9       0.1439  -3.8697 -12.3534   C.ar      1 RES1   0.0000
    10 H10     -0.5615  -3.5154 -13.0964   H         1 RES1   0.0000
    11 C11     -0.1512  -6.1860 -13.2685   C.2       1 RES1   0.0000
    12 F12      2.1313  -2.5282  -9.6669   F         1 RES1   0.0000
    13 N13     -1.2406  -7.9410 -14.1570   N.am      1 RES1   0.0000
    14 C14     -1.5106  -9.4109 -14.3092   C.3       1 RES1   0.0000
    15 H15     -1.2165  -9.7060 -15.3154   H         1 RES1   0.0000
    16 C16     -1.3876  -7.1276 -16.4280   C.3       1 RES1   0.0000
    17 H17     -0.7384  -7.0978 -17.3006   H         1 RES1   0.0000
    18 H18     -2.0590  -7.9772 -16.5346   H         1 RES1   0.0000
    19 H19     -1.9875  -6.2200 -16.4198   H         1 RES1   0.0000
    20 C20     -0.0279  -6.1202 -14.6126   C.2       1 RES1   0.0000
    21 C21      0.6269  -5.0726 -15.4374   C.ar      1 RES1   0.0000
    22 O22     -1.1910  -7.8605 -11.8611   O.2       1 RES1   0.0000
    23 C23     -0.9103  -7.3619 -12.9432   C.2       1 RES1   0.0000
    24 N24     -0.6005  -7.2381 -15.1994   N.3       1 RES1   0.0000
    25 C25     -0.9166 -11.7076 -13.4731   C.3       1 RES1   0.0000
    26 H26     -0.3425 -12.2497 -12.7231   H         1 RES1   0.0000
    27 H27     -0.6032 -12.0221 -14.4674   H         1 RES1   0.0000
    28 C28     -3.2235 -11.2473 -14.2597   C.3       1 RES1   0.0000
    29 H29     -2.9780 -11.5605 -15.2734   H         1 RES1   0.0000
    30 H30     -4.2713 -11.4635 -14.0567   H         1 RES1   0.0000
    31 C31     -2.9881  -9.7501 -14.1290   C.3       1 RES1   0.0000
    32 H32     -3.5682  -9.2306 -14.8902   H         1 RES1   0.0000
    33 H33     -3.3105  -9.4238 -13.1413   H         1 RES1   0.0000
    34 C34     -0.6738 -10.2168 -13.3148   C.3       1 RES1   0.0000
    35 H35     -0.9415  -9.9189 -12.3021   H         1 RES1   0.0000
    36 H36      0.3810 -10.0085 -13.4876   H         1 RES1   0.0000
    37 N37     -2.3716 -12.0020 -13.2941   N.4       1 RES1   1.0000
    38 H38     -2.6429 -11.7464 -12.3500   H         1 RES1   0.0000
    39 H39     -2.5232 -12.9961 -13.4322   H         1 RES1   0.0000
    40 N40      1.9307  -5.2446 -15.7060   N.ar      1 RES1   0.0000
    41 C41      0.6624  -3.0499 -16.6475   C.ar      1 RES1   0.0000
    42 H42      0.1456  -2.1746 -17.0270   H         1 RES1   0.0000
    43 N43      3.8487  -4.4508 -16.6805   N.pl3     1 RES1   0.0000
    44 H44      4.3201  -5.2558 -16.2679   H         1 RES1   0.0000
    45 C45     -0.0596  -3.9606 -15.9027   C.ar      1 RES1   0.0000
    46 H46     -1.1130  -3.8119 -15.6895   H         1 RES1   0.0000
    47 C47      2.5396  -4.2909 -16.4291   C.ar      1 RES1   0.0000
    48 N48      1.9652  -3.1860 -16.9266   N.ar      1 RES1   0.0000
    49 C49      4.6553  -3.5093 -17.4567   C.3       1 RES1   0.0000
    50 H50      3.9969  -2.9800 -18.1630   H         1 RES1   0.0000
    51 C51      5.7518  -4.1996 -18.2438   C.ar      1 RES1   0.0000
    52 C52      5.2420  -2.4923 -16.4848   C.3       1 RES1   0.0000
    53 H53      5.8281  -1.7447 -17.0152   H         1 RES1   0.0000
    54 H54      4.4536  -1.9792 -15.9380   H         1 RES1   0.0000
    55 H55      5.8918  -2.9818 -15.7624   H         1 RES1   0.0000
    56 C56      7.7681  -5.4788 -19.6786   C.ar      1 RES1   0.0000
    57 H57      8.5528  -5.9773 -20.2379   H         1 RES1   0.0000
    58 C58      6.3726  -5.3333 -17.7394   C.ar      1 RES1   0.0000
    59 H59      6.0694  -5.7259 -16.7745   H         1 RES1   0.0000
    60 C60      6.1603  -3.7157 -19.4790   C.ar      1 RES1   0.0000
    61 H61      5.6907  -2.8296 -19.8930   H         1 RES1   0.0000
    62 C62      7.1623  -4.3528 -20.1913   C.ar      1 RES1   0.0000
    63 H63      7.4708  -3.9636 -21.1559   H         1 RES1   0.0000
    64 C64      7.3739  -5.9695 -18.4533   C.ar      1 RES1   0.0000
    65 H65      7.8487  -6.8561 -18.0466   H         1 RES1   0.0000
@<TRIPOS>BOND
     1     1     5   ar
     2     1     6   ar
     3     1     2    1
     4     3     8   ar
     5     3     9   ar
     6     3     4    1
     7     5     9   ar
     8     5    11    1
     9     6     8   ar
    10     6     7    1
    11     8    12    1
    12     9    10    1
    13    11    20    2
    14    11    23    1
    15    13    14    1
    16    13    23   am
    17    13    24    1
    18    14    31    1
    19    14    34    1
    20    14    15    1
    21    16    24    1
    22    16    17    1
    23    16    18    1
    24    16    19    1
    25    20    21    1
    26    20    24    1
    27    21    40   ar
    28    21    45   ar
    29    22    23    2
    30    25    34    1
    31    25    37    1
    32    25    26    1
    33    25    27    1
    34    28    31    1
    35    28    37    1
    36    28    29    1
    37    28    30    1
    38    31    32    1
    39    31    33    1
    40    34    35    1
    41    34    36    1
    42    37    38    1
    43    37    39    1
    44    40    47   ar
    45    41    45   ar
    46    41    48   ar
    47    41    42    1
    48    43    47    1
    49    43    49    1
    50    43    44    1
    51    45    46    1
    52    47    48   ar
    53    49    51    1
    54    49    52    1
    55    49    50    1
    56    51    58   ar
    57    51    60   ar
    58    52    53    1
    59    52    54    1
    60    52    55    1
    61    56    62   ar
    62    56    64   ar
    63    56    57    1
    64    58    64   ar
    65    58    59    1
    66    60    62   ar
    67    60    61    1
    68    62    63    1
    69    64    65    1
@<TRIPOS>SUBSTRUCTURE
     1 RES1        1 GROUP             0 ****  ****    0  
@<TRIPOS>MOLECULE
LIGAND_00336
    65    69     1     0     0
SMALL
USER_CHARGES
****
Generated from the CSD

@<TRIPOS>ATOM
     1 C1      -0.6994  -4.2982 -11.5265   C.ar      1 RES1   0.0000
     2 H2      -0.1323  -5.0965 -11.0599   H         1 RES1   0.0000
     3 C3      -2.1079  -2.2360 -12.7076   C.ar      1 RES1   0.0000
     4 H4      -2.6530  -1.4188 -13.1683   H         1 RES1   0.0000
     5 C5      -1.2881  -4.5128 -12.7691   C.ar      1 RES1   0.0000
     6 C6      -0.8173  -3.0836 -10.8742   C.ar      1 RES1   0.0000
     7 H7      -0.3629  -2.9290  -9.9013   H         1 RES1   0.0000
     8 C8      -1.5180  -2.0824 -11.4854   C.ar      1 RES1   0.0000
     9 C9      -1.9941  -3.4590 -13.3427   C.ar      1 RES1   0.0000
    10 H10     -2.4708  -3.5947 -14.3068   H         1 RES1   0.0000
    11 C11     -1.1659  -5.8217 -13.4895   C.2       1 RES1   0.0000
    12 F12     -1.6334  -0.8834 -10.8522   F         1 RES1   0.0000
    13 N13     -1.2406  -7.9410 -14.1570   N.am      1 RES1   0.0000
    14 C14     -1.5106  -9.4109 -14.3092   C.3       1 RES1   0.0000
    15 H15     -1.1036  -9.7318 -15.2670   H         1 RES1   0.0000
    16 C16     -0.3252  -7.6743 -16.4955   C.3       1 RES1   0.0000
    17 H17      0.3663  -7.0117 -17.0119   H         1 RES1   0.0000
    18 H18      0.1214  -8.6656 -16.4563   H         1 RES1   0.0000
    19 H19     -1.2387  -7.7366 -17.0832   H         1 RES1   0.0000
    20 C20     -0.5870  -5.9122 -14.7311   C.2       1 RES1   0.0000
    21 C21      0.0604  -4.8376 -15.5265   C.ar      1 RES1   0.0000
    22 O22     -2.1510  -7.5590 -12.1278   O.2       1 RES1   0.0000
    23 C23     -1.5821  -7.1365 -13.1259   C.2       1 RES1   0.0000
    24 N24     -0.6101  -7.1788 -15.1485   N.pl3     1 RES1   0.0000
    25 C25     -1.0508 -11.6947 -13.3605   C.3       1 RES1   0.0000
    26 H26     -0.5768 -12.2260 -12.5366   H         1 RES1   0.0000
    27 H27     -0.6263 -12.0348 -14.3039   H         1 RES1   0.0000
    28 C28     -3.2420 -11.2269 -14.4245   C.3       1 RES1   0.0000
    29 H29     -2.8827 -11.5654 -15.3951   H         1 RES1   0.0000
    30 H30     -4.3093 -11.4269 -14.3426   H         1 RES1   0.0000
    31 C31     -3.0035  -9.7298 -14.2983   C.3       1 RES1   0.0000
    32 H32     -3.4824  -9.2211 -15.1336   H         1 RES1   0.0000
    33 H33     -3.4360  -9.3778 -13.3628   H         1 RES1   0.0000
    34 C34     -0.8083 -10.2033 -13.2059   C.3       1 RES1   0.0000
    35 H35     -1.1898  -9.8799 -12.2386   H         1 RES1   0.0000
    36 H36      0.2623 -10.0106 -13.2568   H         1 RES1   0.0000
    37 N37     -2.5206 -11.9690 -13.3490   N.4       1 RES1   1.0000
    38 H38     -2.8982 -11.6892 -12.4494   H         1 RES1   0.0000
    39 H39     -2.6683 -12.9642 -13.4833   H         1 RES1   0.0000
    40 N40     -0.4745  -4.5722 -16.7286   N.ar      1 RES1   0.0000
    41 C41      1.6905  -3.1773 -15.9048   C.ar      1 RES1   0.0000
    42 H42      2.5557  -2.6175 -15.5653   H         1 RES1   0.0000
    43 N43     -0.4029  -3.3687 -18.6792   N.pl3     1 RES1   0.0000
    44 H44     -1.1837  -3.9449 -18.9932   H         1 RES1   0.0000
    45 C45      1.1705  -4.1438 -15.0676   C.ar      1 RES1   0.0000
    46 H46      1.6110  -4.3522 -14.0982   H         1 RES1   0.0000
    47 C47      0.1180  -3.6205 -17.4677   C.ar      1 RES1   0.0000
    48 N48      1.1874  -2.8931 -17.1131   N.ar      1 RES1   0.0000
    49 C49      0.1194  -2.3619 -19.6028   C.3       1 RES1   0.0000
    50 H50      0.6029  -1.5641 -19.0180   H         1 RES1   0.0000
    51 C51     -0.9686  -1.7420 -20.4576   C.ar      1 RES1   0.0000
    52 C52      1.1755  -3.0350 -20.4715   C.3       1 RES1   0.0000
    53 H53      1.6229  -2.3202 -21.1591   H         1 RES1   0.0000
    54 H54      1.9690  -3.4581 -19.8590   H         1 RES1   0.0000
    55 H55      0.7353  -3.8387 -21.0580   H         1 RES1   0.0000
    56 C56     -2.9605  -0.6082 -22.0410   C.ar      1 RES1   0.0000
    57 H57     -3.7367  -0.1672 -22.6576   H         1 RES1   0.0000
    58 C58     -0.9208  -1.8445 -21.8404   C.ar      1 RES1   0.0000
    59 H59     -0.0975  -2.3721 -22.3105   H         1 RES1   0.0000
    60 C60     -2.0308  -1.0592 -19.8810   C.ar      1 RES1   0.0000
    61 H61     -2.0886  -0.9646 -18.8018   H         1 RES1   0.0000
    62 C62     -3.0203  -0.4965 -20.6693   C.ar      1 RES1   0.0000
    63 H63     -3.8450   0.0337 -20.2048   H         1 RES1   0.0000
    64 C64     -1.9115  -1.2818 -22.6270   C.ar      1 RES1   0.0000
    65 H65     -1.8613  -1.3718 -23.7070   H         1 RES1   0.0000
@<TRIPOS>BOND
     1     1     5   ar
     2     1     6   ar
     3     1     2    1
     4     3     8   ar
     5     3     9   ar
     6     3     4    1
     7     5     9   ar
     8     5    11    1
     9     6     8   ar
    10     6     7    1
    11     8    12    1
    12     9    10    1
    13    11    20    2
    14    11    23    1
    15    13    14    1
    16    13    23   am
    17    13    24    1
    18    14    31    1
    19    14    34    1
    20    14    15    1
    21    16    24    1
    22    16    17    1
    23    16    18    1
    24    16    19    1
    25    20    21    1
    26    20    24    1
    27    21    40   ar
    28    21    45   ar
    29    22    23    2
    30    25    34    1
    31    25    37    1
    32    25    26    1
    33    25    27    1
    34    28    31    1
    35    28    37    1
    36    28    29    1
    37    28    30    1
    38    31    32    1
    39    31    33    1
    40    34    35    1
    41    34    36    1
    42    37    38    1
    43    37    39    1
    44    40    47   ar
    45    41    45   ar
    46    41    48   ar
    47    41    42    1
    48    43    47    1
    49    43    49    1
    50    43    44    1
    51    45    46    1
    52    47    48   ar
    53    49    51    1
    54    49    52    1
    55    49    50    1
    56    51    58   ar
    57    51    60   ar
    58    52    53    1
    59    52    54    1
    60    52    55    1
    61    56    62   ar
    62    56    64   ar
    63    56    57    1
    64    58    64   ar
    65    58    59    1
    66    60    62   ar
    67    60    61    1
    68    62    63    1
    69    64    65    1
@<TRIPOS>SUBSTRUCTURE
     1 RES1        1 GROUP             0 ****  ****    0  
@<TRIPOS>MOLECULE
LIGAND_00337
    65    69     1     0     0
SMALL
USER_CHARGES
****
Generated from the CSD

@<TRIPOS>ATOM
     1 C1      -0.6994  -4.2982 -11.5265   C.ar      1 RES1   0.0000
     2 H2      -0.1323  -5.0965 -11.0599   H         1 RES1   0.0000
     3 C3      -2.1079  -2.2360 -12.7076   C.ar      1 RES1   0.0000
     4 H4      -2.6530  -1.4188 -13.1683   H         1 RES1   0.0000
     5 C5      -1.2881  -4.5128 -12.7691   C.ar      1 RES1   0.0000
     6 C6      -0.8173  -3.0836 -10.8742   C.ar      1 RES1   0.0000
     7 H7      -0.3629  -2.9290  -9.9013   H         1 RES1   0.0000
     8 C8      -1.5180  -2.0824 -11.4854   C.ar      1 RES1   0.0000
     9 C9      -1.9941  -3.4590 -13.3427   C.ar      1 RES1   0.0000
    10 H10     -2.4708  -3.5947 -14.3068   H         1 RES1   0.0000
    11 C11     -1.1659  -5.8217 -13.4895   C.2       1 RES1   0.0000
    12 F12     -1.6334  -0.8834 -10.8522   F         1 RES1   0.0000
    13 N13     -1.2406  -7.9410 -14.1570   N.am      1 RES1   0.0000
    14 C14     -1.5106  -9.4109 -14.3092   C.3       1 RES1   0.0000
    15 H15     -1.1037  -9.7317 -15.2670   H         1 RES1   0.0000
    16 C16     -0.3252  -7.6743 -16.4955   C.3       1 RES1   0.0000
    17 H17      0.3275  -6.9866 -17.0293   H         1 RES1   0.0000
    18 H18      0.1659  -8.6443 -16.4547   H         1 RES1   0.0000
    19 H19     -1.2444  -7.7831 -17.0674   H         1 RES1   0.0000
    20 C20     -0.5870  -5.9122 -14.7311   C.2       1 RES1   0.0000
    21 C21      0.0604  -4.8376 -15.5265   C.ar      1 RES1   0.0000
    22 O22     -2.1510  -7.5590 -12.1278   O.2       1 RES1   0.0000
    23 C23     -1.5821  -7.1365 -13.1259   C.2       1 RES1   0.0000
    24 N24     -0.6101  -7.1788 -15.1485   N.pl3     1 RES1   0.0000
    25 C25     -1.0507 -11.6947 -13.3606   C.3       1 RES1   0.0000
    26 H26     -0.5766 -12.2260 -12.5367   H         1 RES1   0.0000
    27 H27     -0.6262 -12.0348 -14.3040   H         1 RES1   0.0000
    28 C28     -3.2420 -11.2269 -14.4243   C.3       1 RES1   0.0000
    29 H29     -2.8828 -11.5654 -15.3950   H         1 RES1   0.0000
    30 H30     -4.3093 -11.4269 -14.3423   H         1 RES1   0.0000
    31 C31     -3.0035  -9.7298 -14.2981   C.3       1 RES1   0.0000
    32 H32     -3.4825  -9.2211 -15.1335   H         1 RES1   0.0000
    33 H33     -3.4359  -9.3779 -13.3627   H         1 RES1   0.0000
    34 C34     -0.8081 -10.2033 -13.2060   C.3       1 RES1   0.0000
    35 H35     -1.1896  -9.8799 -12.2386   H         1 RES1   0.0000
    36 H36      0.2624 -10.0106 -13.2570   H         1 RES1   0.0000
    37 N37     -2.5205 -11.9690 -13.3490   N.4       1 RES1   1.0000
    38 H38     -2.8980 -11.6893 -12.4493   H         1 RES1   0.0000
    39 H39     -2.6682 -12.9642 -13.4832   H         1 RES1   0.0000
    40 N40     -0.4745  -4.5722 -16.7286   N.ar      1 RES1   0.0000
    41 C41      1.6905  -3.1773 -15.9048   C.ar      1 RES1   0.0000
    42 H42      2.5557  -2.6175 -15.5653   H         1 RES1   0.0000
    43 N43     -0.4029  -3.3687 -18.6792   N.pl3     1 RES1   0.0000
    44 H44      0.0079  -2.6141 -19.2290   H         1 RES1   0.0000
    45 C45      1.1705  -4.1438 -15.0676   C.ar      1 RES1   0.0000
    46 H46      1.6110  -4.3522 -14.0982   H         1 RES1   0.0000
    47 C47      0.1180  -3.6205 -17.4677   C.ar      1 RES1   0.0000
    48 N48      1.1874  -2.8931 -17.1131   N.ar      1 RES1   0.0000
    49 C49     -1.5626  -4.0665 -19.2339   C.3       1 RES1   0.0000
    50 H50     -1.6106  -5.0749 -18.7945   H         1 RES1   0.0000
    51 C51     -1.4895  -4.2003 -20.7423   C.ar      1 RES1   0.0000
    52 C52     -2.8094  -3.2954 -18.8166   C.3       1 RES1   0.0000
    53 H53     -3.7085  -3.7908 -19.1769   H         1 RES1   0.0000
    54 H54     -2.8746  -3.2211 -17.7331   H         1 RES1   0.0000
    55 H55     -2.7920  -2.2870 -19.2248   H         1 RES1   0.0000
    56 C56     -1.3684  -4.4380 -23.5153   C.ar      1 RES1   0.0000
    57 H57     -1.3207  -4.5300 -24.5953   H         1 RES1   0.0000
    58 C58     -2.4736  -3.6435 -21.5464   C.ar      1 RES1   0.0000
    59 H59     -3.3003  -3.1095 -21.0896   H         1 RES1   0.0000
    60 C60     -0.4442  -4.8809 -21.3513   C.ar      1 RES1   0.0000
    61 H61      0.3360  -5.3263 -20.7430   H         1 RES1   0.0000
    62 C62     -0.3851  -4.9980 -22.7297   C.ar      1 RES1   0.0000
    63 H63      0.4383  -5.5323 -23.1919   H         1 RES1   0.0000
    64 C64     -2.4125  -3.7608 -22.9246   C.ar      1 RES1   0.0000
    65 H65     -3.1886  -3.3184 -23.5402   H         1 RES1   0.0000
@<TRIPOS>BOND
     1     1     5   ar
     2     1     6   ar
     3     1     2    1
     4     3     8   ar
     5     3     9   ar
     6     3     4    1
     7     5     9   ar
     8     5    11    1
     9     6     8   ar
    10     6     7    1
    11     8    12    1
    12     9    10    1
    13    11    20    2
    14    11    23    1
    15    13    14    1
    16    13    23   am
    17    13    24    1
    18    14    31    1
    19    14    34    1
    20    14    15    1
    21    16    24    1
    22    16    17    1
    23    16    18    1
    24    16    19    1
    25    20    21    1
    26    20    24    1
    27    21    40   ar
    28    21    45   ar
    29    22    23    2
    30    25    34    1
    31    25    37    1
    32    25    26    1
    33    25    27    1
    34    28    31    1
    35    28    37    1
    36    28    29    1
    37    28    30    1
    38    31    32    1
    39    31    33    1
    40    34    35    1
    41    34    36    1
    42    37    38    1
    43    37    39    1
    44    40    47   ar
    45    41    45   ar
    46    41    48   ar
    47    41    42    1
    48    43    47    1
    49    43    49    1
    50    43    44    1
    51    45    46    1
    52    47    48   ar
    53    49    51    1
    54    49    52    1
    55    49    50    1
    56    51    58   ar
    57    51    60   ar
    58    52    53    1
    59    52    54    1
    60    52    55    1
    61    56    62   ar
    62    56    64   ar
    63    56    57    1
    64    58    64   ar
    65    58    59    1
    66    60    62   ar
    67    60    61    1
    68    62    63    1
    69    64    65    1
@<TRIPOS>SUBSTRUCTURE
     1 RES1        1 GROUP             0 ****  ****    0  
@<TRIPOS>MOLECULE
LIGAND_00338
    65    69     1     0     0
SMALL
USER_CHARGES
****
Generated from the CSD

@<TRIPOS>ATOM
     1 C1      -0.1734  -3.7512 -12.4311   C.ar      1 RES1   0.0000
     2 H2       0.8163  -4.1080 -12.6950   H         1 RES1   0.0000
     3 C3      -2.6840  -2.8012 -11.7784   C.ar      1 RES1   0.0000
     4 H4      -3.6669  -2.4178 -11.5253   H         1 RES1   0.0000
     5 C5      -1.2881  -4.5128 -12.7691   C.ar      1 RES1   0.0000
     6 C6      -0.3010  -2.5429 -11.7691   C.ar      1 RES1   0.0000
     7 H7       0.5745  -1.9608 -11.5013   H         1 RES1   0.0000
     8 C8      -1.5563  -2.0986 -11.4624   C.ar      1 RES1   0.0000
     9 C9      -2.5420  -4.0138 -12.4278   C.ar      1 RES1   0.0000
    10 H10     -3.4308  -4.5851 -12.6702   H         1 RES1   0.0000
    11 C11     -1.1659  -5.8217 -13.4895   C.2       1 RES1   0.0000
    12 F12     -1.6896  -0.9084 -10.8162   F         1 RES1   0.0000
    13 N13     -1.2406  -7.9410 -14.1570   N.am      1 RES1   0.0000
    14 C14     -1.5106  -9.4109 -14.3092   C.3       1 RES1   0.0000
    15 H15     -1.1036  -9.7318 -15.2670   H         1 RES1   0.0000
    16 C16     -0.3252  -7.6743 -16.4955   C.3       1 RES1   0.0000
    17 H17      0.3674  -7.0124 -17.0113   H         1 RES1   0.0000
    18 H18      0.1201  -8.6662 -16.4563   H         1 RES1   0.0000
    19 H19     -1.2385  -7.7352 -17.0837   H         1 RES1   0.0000
    20 C20     -0.5870  -5.9122 -14.7311   C.2       1 RES1   0.0000
    21 C21      0.0604  -4.8376 -15.5265   C.ar      1 RES1   0.0000
    22 O22     -2.1510  -7.5590 -12.1278   O.2       1 RES1   0.0000
    23 C23     -1.5821  -7.1365 -13.1259   C.2       1 RES1   0.0000
    24 N24     -0.6101  -7.1788 -15.1485   N.pl3     1 RES1   0.0000
    25 C25     -1.0508 -11.6947 -13.3606   C.3       1 RES1   0.0000
    26 H26     -0.5767 -12.2260 -12.5366   H         1 RES1   0.0000
    27 H27     -0.6263 -12.0348 -14.3040   H         1 RES1   0.0000
    28 C28     -3.2420 -11.2269 -14.4244   C.3       1 RES1   0.0000
    29 H29     -2.8827 -11.5654 -15.3951   H         1 RES1   0.0000
    30 H30     -4.3093 -11.4269 -14.3424   H         1 RES1   0.0000
    31 C31     -3.0035  -9.7298 -14.2982   C.3       1 RES1   0.0000
    32 H32     -3.4825  -9.2211 -15.1335   H         1 RES1   0.0000
    33 H33     -3.4359  -9.3778 -13.3627   H         1 RES1   0.0000
    34 C34     -0.8082 -10.2033 -13.2060   C.3       1 RES1   0.0000
    35 H35     -1.1897  -9.8799 -12.2386   H         1 RES1   0.0000
    36 H36      0.2624 -10.0106 -13.2569   H         1 RES1   0.0000
    37 N37     -2.5206 -11.9690 -13.3490   N.4       1 RES1   1.0000
    38 H38     -2.8981 -11.6893 -12.4493   H         1 RES1   0.0000
    39 H39     -2.6682 -12.9642 -13.4833   H         1 RES1   0.0000
    40 N40      1.3518  -5.0181 -15.8447   N.ar      1 RES1   0.0000
    41 C41      0.0944  -2.7605 -16.6407   C.ar      1 RES1   0.0000
    42 H42     -0.4181  -1.8597 -16.9618   H         1 RES1   0.0000
    43 N43      3.2523  -4.2108 -16.8421   N.pl3     1 RES1   0.0000
    44 H44      3.7214  -5.0427 -16.4841   H         1 RES1   0.0000
    45 C45     -0.6202  -3.6935 -15.9166   C.ar      1 RES1   0.0000
    46 H46     -1.6635  -3.5377 -15.6629   H         1 RES1   0.0000
    47 C47      1.9548  -4.0414 -16.5414   C.ar      1 RES1   0.0000
    48 N48      1.3851  -2.9047 -16.9677   N.ar      1 RES1   0.0000
    49 C49      4.0513  -3.2463 -17.5976   C.3       1 RES1   0.0000
    50 H50      3.3835  -2.6843 -18.2688   H         1 RES1   0.0000
    51 C51      5.1251  -3.9144 -18.4337   C.ar      1 RES1   0.0000
    52 C52      4.6670  -2.2731 -16.5991   C.3       1 RES1   0.0000
    53 H53      5.2490  -1.5102 -17.1120   H         1 RES1   0.0000
    54 H54      3.8948  -1.7754 -16.0164   H         1 RES1   0.0000
    55 H55      5.3271  -2.7960 -15.9101   H         1 RES1   0.0000
    56 C56      7.1092  -5.1341 -19.9621   C.ar      1 RES1   0.0000
    57 H57      7.8819  -5.6098 -20.5570   H         1 RES1   0.0000
    58 C58      6.4645  -3.6182 -18.2257   C.ar      1 RES1   0.0000
    59 H59      6.7423  -2.9026 -17.4589   H         1 RES1   0.0000
    60 C60      4.7961  -4.8310 -19.4229   C.ar      1 RES1   0.0000
    61 H61      3.7552  -5.0772 -19.6050   H         1 RES1   0.0000
    62 C62      5.7834  -5.4367 -20.1816   C.ar      1 RES1   0.0000
    63 H63      5.5114  -6.1517 -20.9509   H         1 RES1   0.0000
    64 C64      7.4504  -4.2254 -18.9847   C.ar      1 RES1   0.0000
    65 H65      8.4937  -3.9848 -18.8091   H         1 RES1   0.0000
@<TRIPOS>BOND
     1     1     5   ar
     2     1     6   ar
     3     1     2    1
     4     3     8   ar
     5     3     9   ar
     6     3     4    1
     7     5     9   ar
     8     5    11    1
     9     6     8   ar
    10     6     7    1
    11     8    12    1
    12     9    10    1
    13    11    20    2
    14    11    23    1
    15    13    14    1
    16    13    23   am
    17    13    24    1
    18    14    31    1
    19    14    34    1
    20    14    15    1
    21    16    24    1
    22    16    17    1
    23    16    18    1
    24    16    19    1
    25    20    21    1
    26    20    24    1
    27    21    40   ar
    28    21    45   ar
    29    22    23    2
    30    25    34    1
    31    25    37    1
    32    25    26    1
    33    25    27    1
    34    28    31    1
    35    28    37    1
    36    28    29    1
    37    28    30    1
    38    31    32    1
    39    31    33    1
    40    34    35    1
    41    34    36    1
    42    37    38    1
    43    37    39    1
    44    40    47   ar
    45    41    45   ar
    46    41    48   ar
    47    41    42    1
    48    43    47    1
    49    43    49    1
    50    43    44    1
    51    45    46    1
    52    47    48   ar
    53    49    51    1
    54    49    52    1
    55    49    50    1
    56    51    58   ar
    57    51    60   ar
    58    52    53    1
    59    52    54    1
    60    52    55    1
    61    56    62   ar
    62    56    64   ar
    63    56    57    1
    64    58    64   ar
    65    58    59    1
    66    60    62   ar
    67    60    61    1
    68    62    63    1
    69    64    65    1
@<TRIPOS>SUBSTRUCTURE
     1 RES1        1 GROUP             0 ****  ****    0  
@<TRIPOS>MOLECULE
LIGAND_00339
    65    69     1     0     0
SMALL
USER_CHARGES
****
Generated from the CSD

@<TRIPOS>ATOM
     1 C1      -0.1734  -3.7512 -12.4311   C.ar      1 RES1   0.0000
     2 H2       0.8163  -4.1080 -12.6950   H         1 RES1   0.0000
     3 C3      -2.6840  -2.8012 -11.7784   C.ar      1 RES1   0.0000
     4 H4      -3.6669  -2.4178 -11.5253   H         1 RES1   0.0000
     5 C5      -1.2881  -4.5128 -12.7691   C.ar      1 RES1   0.0000
     6 C6      -0.3010  -2.5429 -11.7691   C.ar      1 RES1   0.0000
     7 H7       0.5745  -1.9608 -11.5013   H         1 RES1   0.0000
     8 C8      -1.5563  -2.0986 -11.4624   C.ar      1 RES1   0.0000
     9 C9      -2.5420  -4.0138 -12.4278   C.ar      1 RES1   0.0000
    10 H10     -3.4308  -4.5851 -12.6702   H         1 RES1   0.0000
    11 C11     -1.1659  -5.8217 -13.4895   C.2       1 RES1   0.0000
    12 F12     -1.6896  -0.9084 -10.8162   F         1 RES1   0.0000
    13 N13     -1.2406  -7.9410 -14.1570   N.am      1 RES1   0.0000
    14 C14     -1.5106  -9.4109 -14.3092   C.3       1 RES1   0.0000
    15 H15     -1.1037  -9.7317 -15.2670   H         1 RES1   0.0000
    16 C16     -0.3252  -7.6743 -16.4955   C.3       1 RES1   0.0000
    17 H17      0.2946  -6.9674 -17.0433   H         1 RES1   0.0000
    18 H18      0.2017  -8.6253 -16.4541   H         1 RES1   0.0000
    19 H19     -1.2473  -7.8212 -17.0540   H         1 RES1   0.0000
    20 C20     -0.5870  -5.9122 -14.7311   C.2       1 RES1   0.0000
    21 C21      0.0604  -4.8376 -15.5265   C.ar      1 RES1   0.0000
    22 O22     -2.1510  -7.5590 -12.1278   O.2       1 RES1   0.0000
    23 C23     -1.5821  -7.1365 -13.1259   C.2       1 RES1   0.0000
    24 N24     -0.6101  -7.1788 -15.1485   N.pl3     1 RES1   0.0000
    25 C25     -1.0507 -11.6947 -13.3606   C.3       1 RES1   0.0000
    26 H26     -0.5766 -12.2260 -12.5367   H         1 RES1   0.0000
    27 H27     -0.6262 -12.0348 -14.3040   H         1 RES1   0.0000
    28 C28     -3.2420 -11.2269 -14.4243   C.3       1 RES1   0.0000
    29 H29     -2.8828 -11.5654 -15.3950   H         1 RES1   0.0000
    30 H30     -4.3093 -11.4269 -14.3423   H         1 RES1   0.0000
    31 C31     -3.0035  -9.7298 -14.2981   C.3       1 RES1   0.0000
    32 H32     -3.4825  -9.2211 -15.1334   H         1 RES1   0.0000
    33 H33     -3.4359  -9.3779 -13.3626   H         1 RES1   0.0000
    34 C34     -0.8081 -10.2034 -13.2060   C.3       1 RES1   0.0000
    35 H35     -1.1895  -9.8799 -12.2386   H         1 RES1   0.0000
    36 H36      0.2625 -10.0106 -13.2570   H         1 RES1   0.0000
    37 N37     -2.5205 -11.9690 -13.3490   N.4       1 RES1   1.0000
    38 H38     -2.8979 -11.6893 -12.4493   H         1 RES1   0.0000
    39 H39     -2.6682 -12.9642 -13.4832   H         1 RES1   0.0000
    40 N40      1.3518  -5.0181 -15.8447   N.ar      1 RES1   0.0000
    41 C41      0.0944  -2.7605 -16.6407   C.ar      1 RES1   0.0000
    42 H42     -0.4181  -1.8597 -16.9618   H         1 RES1   0.0000
    43 N43      3.2523  -4.2108 -16.8421   N.pl3     1 RES1   0.0000
    44 H44      3.7077  -3.4991 -17.4133   H         1 RES1   0.0000
    45 C45     -0.6202  -3.6935 -15.9166   C.ar      1 RES1   0.0000
    46 H46     -1.6635  -3.5377 -15.6629   H         1 RES1   0.0000
    47 C47      1.9548  -4.0414 -16.5414   C.ar      1 RES1   0.0000
    48 N48      1.3851  -2.9047 -16.9677   N.ar      1 RES1   0.0000
    49 C49      4.0370  -5.3830 -16.4550   C.3       1 RES1   0.0000
    50 H50      3.6090  -5.8048 -15.5325   H         1 RES1   0.0000
    51 C51      5.4931  -5.0455 -16.2012   C.ar      1 RES1   0.0000
    52 C52      3.9048  -6.4160 -17.5680   C.3       1 RES1   0.0000
    53 H53      4.4455  -7.3260 -17.3165   H         1 RES1   0.0000
    54 H54      2.8614  -6.6765 -17.7330   H         1 RES1   0.0000
    55 H55      4.3089  -6.0291 -18.5012   H         1 RES1   0.0000
    56 C56      8.1728  -4.4352 -15.7460   C.ar      1 RES1   0.0000
    57 H57      9.2163  -4.1968 -15.5691   H         1 RES1   0.0000
    58 C58      6.4951  -5.6447 -16.9508   C.ar      1 RES1   0.0000
    59 H59      6.2317  -6.3599 -17.7230   H         1 RES1   0.0000
    60 C60      5.8567  -4.1364 -15.2172   C.ar      1 RES1   0.0000
    61 H61      5.0907  -3.6565 -14.6171   H         1 RES1   0.0000
    62 C62      7.1890  -3.8337 -14.9923   C.ar      1 RES1   0.0000
    63 H63      7.4583  -3.1207 -14.2202   H         1 RES1   0.0000
    64 C64      7.8268  -5.3403 -16.7250   C.ar      1 RES1   0.0000
    65 H65      8.5990  -5.8158 -17.3206   H         1 RES1   0.0000
@<TRIPOS>BOND
     1     1     5   ar
     2     1     6   ar
     3     1     2    1
     4     3     8   ar
     5     3     9   ar
     6     3     4    1
     7     5     9   ar
     8     5    11    1
     9     6     8   ar
    10     6     7    1
    11     8    12    1
    12     9    10    1
    13    11    20    2
    14    11    23    1
    15    13    14    1
    16    13    23   am
    17    13    24    1
    18    14    31    1
    19    14    34    1
    20    14    15    1
    21    16    24    1
    22    16    17    1
    23    16    18    1
    24    16    19    1
    25    20    21    1
    26    20    24    1
    27    21    40   ar
    28    21    45   ar
    29    22    23    2
    30    25    34    1
    31    25    37    1
    32    25    26    1
    33    25    27    1
    34    28    31    1
    35    28    37    1
    36    28    29    1
    37    28    30    1
    38    31    32    1
    39    31    33    1
    40    34    35    1
    41    34    36    1
    42    37    38    1
    43    37    39    1
    44    40    47   ar
    45    41    45   ar
    46    41    48   ar
    47    41    42    1
    48    43    47    1
    49    43    49    1
    50    43    44    1
    51    45    46    1
    52    47    48   ar
    53    49    51    1
    54    49    52    1
    55    49    50    1
    56    51    58   ar
    57    51    60   ar
    58    52    53    1
    59    52    54    1
    60    52    55    1
    61    56    62   ar
    62    56    64   ar
    63    56    57    1
    64    58    64   ar
    65    58    59    1
    66    60    62   ar
    67    60    61    1
    68    62    63    1
    69    64    65    1
@<TRIPOS>SUBSTRUCTURE
     1 RES1        1 GROUP             0 ****  ****    0  
@<TRIPOS>MOLECULE
LIGAND_00340
    65    69     1     0     0
SMALL
USER_CHARGES
****
Generated from the CSD

@<TRIPOS>ATOM
     1 C1      -0.4434  -3.6869 -12.4155   C.ar      1 RES1   0.0000
     2 H2       0.5773  -4.0370 -12.5254   H         1 RES1   0.0000
     3 C3      -3.0308  -2.7547 -12.1548   C.ar      1 RES1   0.0000
     4 H4      -4.0435  -2.3782 -12.0555   H         1 RES1   0.0000
     5 C5      -1.4911  -4.4747 -12.8829   C.ar      1 RES1   0.0000
     6 C6      -0.6759  -2.4611 -11.8174   C.ar      1 RES1   0.0000
     7 H7       0.1468  -1.8584 -11.4474   H         1 RES1   0.0000
     8 C8      -1.9665  -2.0263 -11.7054   C.ar      1 RES1   0.0000
     9 C9      -2.7858  -3.9841 -12.7384   C.ar      1 RES1   0.0000
    10 H10     -3.6253  -4.5756 -13.0854   H         1 RES1   0.0000
    11 C11     -1.2546  -5.8030 -13.5364   C.2       1 RES1   0.0000
    12 F12     -2.2022  -0.8191 -11.1231   F         1 RES1   0.0000
    13 N13     -1.1781  -7.9481 -14.1157   N.am      1 RES1   0.0000
    14 C14     -1.3640  -9.4349 -14.2223   C.3       1 RES1   0.0000
    15 H15     -0.8756  -9.7718 -15.1355   H         1 RES1   0.0000
    16 C16     -0.1165  -7.7266 -16.3964   C.3       1 RES1   0.0000
    17 H17      0.4889  -7.0033 -16.9387   H         1 RES1   0.0000
    18 H18      0.4683  -8.6365 -16.2778   H         1 RES1   0.0000
    19 H19     -0.9895  -7.9608 -17.0019   H         1 RES1   0.0000
    20 C20     -0.5870  -5.9122 -14.7311   C.2       1 RES1   0.0000
    21 C21      0.0604  -4.8376 -15.5265   C.ar      1 RES1   0.0000
    22 O22     -2.2452  -7.5341 -12.1708   O.2       1 RES1   0.0000
    23 C23     -1.6298  -7.1223 -13.1455   C.2       1 RES1   0.0000
    24 N24     -0.5185  -7.1937 -15.0942   N.pl3     1 RES1   0.0000
    25 C25     -0.8600 -11.6522 -13.1469   C.3       1 RES1   0.0000
    26 H26     -0.4193 -12.1250 -12.2705   H         1 RES1   0.0000
    27 H27     -0.3541 -12.0068 -14.0437   H         1 RES1   0.0000
    28 C28     -2.9915 -11.3418 -14.3767   C.3       1 RES1   0.0000
    29 H29     -2.5488 -11.6993 -15.3051   H         1 RES1   0.0000
    30 H30     -4.0508 -11.5937 -14.3590   H         1 RES1   0.0000
    31 C31     -2.8365  -9.8304 -14.2992   C.3       1 RES1   0.0000
    32 H32     -3.2802  -9.3810 -15.1864   H         1 RES1   0.0000
    33 H33     -3.3503  -9.4647 -13.4114   H         1 RES1   0.0000
    34 C34     -0.7026 -10.1453 -13.0407   C.3       1 RES1   0.0000
    35 H35     -1.1664  -9.8041 -12.1164   H         1 RES1   0.0000
    36 H36      0.3581  -9.8992 -13.0269   H         1 RES1   0.0000
    37 N37     -2.3117 -12.0021 -13.2236   N.4       1 RES1   1.0000
    38 H38     -2.7647 -11.7070 -12.3646   H         1 RES1   0.0000
    39 H39     -2.4004 -13.0081 -13.3246   H         1 RES1   0.0000
    40 N40     -0.4745  -4.5722 -16.7286   N.ar      1 RES1   0.0000
    41 C41      1.6905  -3.1773 -15.9048   C.ar      1 RES1   0.0000
    42 H42      2.5557  -2.6175 -15.5653   H         1 RES1   0.0000
    43 N43     -0.4029  -3.3687 -18.6792   N.pl3     1 RES1   0.0000
    44 H44     -1.1835  -3.9451 -18.9933   H         1 RES1   0.0000
    45 C45      1.1705  -4.1438 -15.0676   C.ar      1 RES1   0.0000
    46 H46      1.6110  -4.3522 -14.0982   H         1 RES1   0.0000
    47 C47      0.1180  -3.6205 -17.4677   C.ar      1 RES1   0.0000
    48 N48      1.1874  -2.8931 -17.1131   N.ar      1 RES1   0.0000
    49 C49      0.1191  -2.3616 -19.6026   C.3       1 RES1   0.0000
    50 H50      0.6017  -1.5634 -19.0176   H         1 RES1   0.0000
    51 C51     -0.9688  -1.7426 -20.4580   C.ar      1 RES1   0.0000
    52 C52      1.1762  -3.0340 -20.4708   C.3       1 RES1   0.0000
    53 H53      1.6234  -2.3190 -21.1582   H         1 RES1   0.0000
    54 H54      1.9696  -3.4565 -19.8578   H         1 RES1   0.0000
    55 H55      0.7368  -3.8381 -21.0574   H         1 RES1   0.0000
    56 C56     -2.9608  -0.6104 -22.0426   C.ar      1 RES1   0.0000
    57 H57     -3.7370  -0.1700 -22.6595   H         1 RES1   0.0000
    58 C58     -0.9203  -1.8452 -21.8408   C.ar      1 RES1   0.0000
    59 H59     -0.0964  -2.3723 -22.3105   H         1 RES1   0.0000
    60 C60     -2.0318  -1.0605 -19.8821   C.ar      1 RES1   0.0000
    61 H61     -2.0902  -0.9657 -18.8028   H         1 RES1   0.0000
    62 C62     -3.0214  -0.4985 -20.6709   C.ar      1 RES1   0.0000
    63 H63     -3.8466   0.0312 -20.2068   H         1 RES1   0.0000
    64 C64     -1.9110  -1.2833 -22.6280   C.ar      1 RES1   0.0000
    65 H65     -1.8602  -1.3734 -23.7080   H         1 RES1   0.0000
@<TRIPOS>BOND
     1     1     5   ar
     2     1     6   ar
     3     1     2    1
     4     3     8   ar
     5     3     9   ar
     6     3     4    1
     7     5     9   ar
     8     5    11    1
     9     6     8   ar
    10     6     7    1
    11     8    12    1
    12     9    10    1
    13    11    20    2
    14    11    23    1
    15    13    14    1
    16    13    23   am
    17    13    24    1
    18    14    31    1
    19    14    34    1
    20    14    15    1
    21    16    24    1
    22    16    17    1
    23    16    18    1
    24    16    19    1
    25    20    21    1
    26    20    24    1
    27    21    40   ar
    28    21    45   ar
    29    22    23    2
    30    25    34    1
    31    25    37    1
    32    25    26    1
    33    25    27    1
    34    28    31    1
    35    28    37    1
    36    28    29    1
    37    28    30    1
    38    31    32    1
    39    31    33    1
    40    34    35    1
    41    34    36    1
    42    37    38    1
    43    37    39    1
    44    40    47   ar
    45    41    45   ar
    46    41    48   ar
    47    41    42    1
    48    43    47    1
    49    43    49    1
    50    43    44    1
    51    45    46    1
    52    47    48   ar
    53    49    51    1
    54    49    52    1
    55    49    50    1
    56    51    58   ar
    57    51    60   ar
    58    52    53    1
    59    52    54    1
    60    52    55    1
    61    56    62   ar
    62    56    64   ar
    63    56    57    1
    64    58    64   ar
    65    58    59    1
    66    60    62   ar
    67    60    61    1
    68    62    63    1
    69    64    65    1
@<TRIPOS>SUBSTRUCTURE
     1 RES1        1 GROUP             0 ****  ****    0  
@<TRIPOS>MOLECULE
LIGAND_00341
    65    69     1     0     0
SMALL
USER_CHARGES
****
Generated from the CSD

@<TRIPOS>ATOM
     1 C1      -0.4436  -3.6868 -12.4157   C.ar      1 RES1   0.0000
     2 H2       0.5771  -4.0367 -12.5256   H         1 RES1   0.0000
     3 C3      -3.0311  -2.7547 -12.1549   C.ar      1 RES1   0.0000
     4 H4      -4.0439  -2.3784 -12.0556   H         1 RES1   0.0000
     5 C5      -1.4913  -4.4747 -12.8830   C.ar      1 RES1   0.0000
     6 C6      -0.6762  -2.4609 -11.8176   C.ar      1 RES1   0.0000
     7 H7       0.1464  -1.8581 -11.4477   H         1 RES1   0.0000
     8 C8      -1.9668  -2.0262 -11.7056   C.ar      1 RES1   0.0000
     9 C9      -2.7860  -3.9842 -12.7384   C.ar      1 RES1   0.0000
    10 H10     -3.6255  -4.5758 -13.0854   H         1 RES1   0.0000
    11 C11     -1.2547  -5.8030 -13.5365   C.2       1 RES1   0.0000
    12 F12     -2.2026  -0.8191 -11.1234   F         1 RES1   0.0000
    13 N13     -1.1781  -7.9481 -14.1156   N.am      1 RES1   0.0000
    14 C14     -1.3639  -9.4349 -14.2222   C.3       1 RES1   0.0000
    15 H15     -0.8755  -9.7718 -15.1354   H         1 RES1   0.0000
    16 C16     -0.1163  -7.7267 -16.3963   C.3       1 RES1   0.0000
    17 H17      0.4844  -7.0012 -16.9410   H         1 RES1   0.0000
    18 H18      0.4734  -8.6333 -16.2775   H         1 RES1   0.0000
    19 H19     -0.9893  -7.9662 -16.9997   H         1 RES1   0.0000
    20 C20     -0.5870  -5.9122 -14.7311   C.2       1 RES1   0.0000
    21 C21      0.0604  -4.8376 -15.5265   C.ar      1 RES1   0.0000
    22 O22     -2.2453  -7.5340 -12.1709   O.2       1 RES1   0.0000
    23 C23     -1.6299  -7.1223 -13.1455   C.2       1 RES1   0.0000
    24 N24     -0.5184  -7.1938 -15.0941   N.pl3     1 RES1   0.0000
    25 C25     -0.8597 -11.6522 -13.1469   C.3       1 RES1   0.0000
    26 H26     -0.4189 -12.1250 -12.2704   H         1 RES1   0.0000
    27 H27     -0.3538 -12.0068 -14.0437   H         1 RES1   0.0000
    28 C28     -2.9913 -11.3419 -14.3764   C.3       1 RES1   0.0000
    29 H29     -2.5486 -11.6994 -15.3049   H         1 RES1   0.0000
    30 H30     -4.0506 -11.5939 -14.3587   H         1 RES1   0.0000
    31 C31     -2.8364  -9.8305 -14.2990   C.3       1 RES1   0.0000
    32 H32     -3.2801  -9.3811 -15.1862   H         1 RES1   0.0000
    33 H33     -3.3502  -9.4648 -13.4112   H         1 RES1   0.0000
    34 C34     -0.7024 -10.1453 -13.0406   C.3       1 RES1   0.0000
    35 H35     -1.1662  -9.8041 -12.1163   H         1 RES1   0.0000
    36 H36      0.3584  -9.8991 -13.0269   H         1 RES1   0.0000
    37 N37     -2.3113 -12.0021 -13.2235   N.4       1 RES1   1.0000
    38 H38     -2.7643 -11.7070 -12.3644   H         1 RES1   0.0000
    39 H39     -2.4000 -13.0082 -13.3244   H         1 RES1   0.0000
    40 N40     -0.4745  -4.5722 -16.7286   N.ar      1 RES1   0.0000
    41 C41      1.6905  -3.1773 -15.9048   C.ar      1 RES1   0.0000
    42 H42      2.5557  -2.6175 -15.5653   H         1 RES1   0.0000
    43 N43     -0.4029  -3.3687 -18.6792   N.pl3     1 RES1   0.0000
    44 H44      0.0077  -2.6140 -19.2288   H         1 RES1   0.0000
    45 C45      1.1705  -4.1438 -15.0676   C.ar      1 RES1   0.0000
    46 H46      1.6110  -4.3522 -14.0982   H         1 RES1   0.0000
    47 C47      0.1180  -3.6205 -17.4677   C.ar      1 RES1   0.0000
    48 N48      1.1874  -2.8931 -17.1131   N.ar      1 RES1   0.0000
    49 C49     -1.5624  -4.0668 -19.2341   C.3       1 RES1   0.0000
    50 H50     -1.6098  -5.0754 -18.7952   H         1 RES1   0.0000
    51 C51     -1.4896  -4.1997 -20.7425   C.ar      1 RES1   0.0000
    52 C52     -2.8094  -3.2964 -18.8161   C.3       1 RES1   0.0000
    53 H53     -3.7084  -3.7921 -19.1765   H         1 RES1   0.0000
    54 H54     -2.8745  -3.2228 -17.7326   H         1 RES1   0.0000
    55 H55     -2.7926  -2.2878 -19.2237   H         1 RES1   0.0000
    56 C56     -1.3689  -4.4358 -23.5156   C.ar      1 RES1   0.0000
    57 H57     -1.3214  -4.5272 -24.5957   H         1 RES1   0.0000
    58 C58     -2.4742  -3.6431 -21.5461   C.ar      1 RES1   0.0000
    59 H59     -3.3011  -3.1100 -21.0888   H         1 RES1   0.0000
    60 C60     -0.4439  -4.8793 -21.3521   C.ar      1 RES1   0.0000
    61 H61      0.3368  -5.3245 -20.7442   H         1 RES1   0.0000
    62 C62     -0.3850  -4.9956 -22.7306   C.ar      1 RES1   0.0000
    63 H63      0.4386  -5.5291 -23.1932   H         1 RES1   0.0000
    64 C64     -2.4133  -3.7597 -22.9244   C.ar      1 RES1   0.0000
    65 H65     -3.1898  -3.3175 -23.5396   H         1 RES1   0.0000
@<TRIPOS>BOND
     1     1     5   ar
     2     1     6   ar
     3     1     2    1
     4     3     8   ar
     5     3     9   ar
     6     3     4    1
     7     5     9   ar
     8     5    11    1
     9     6     8   ar
    10     6     7    1
    11     8    12    1
    12     9    10    1
    13    11    20    2
    14    11    23    1
    15    13    14    1
    16    13    23   am
    17    13    24    1
    18    14    31    1
    19    14    34    1
    20    14    15    1
    21    16    24    1
    22    16    17    1
    23    16    18    1
    24    16    19    1
    25    20    21    1
    26    20    24    1
    27    21    40   ar
    28    21    45   ar
    29    22    23    2
    30    25    34    1
    31    25    37    1
    32    25    26    1
    33    25    27    1
    34    28    31    1
    35    28    37    1
    36    28    29    1
    37    28    30    1
    38    31    32    1
    39    31    33    1
    40    34    35    1
    41    34    36    1
    42    37    38    1
    43    37    39    1
    44    40    47   ar
    45    41    45   ar
    46    41    48   ar
    47    41    42    1
    48    43    47    1
    49    43    49    1
    50    43    44    1
    51    45    46    1
    52    47    48   ar
    53    49    51    1
    54    49    52    1
    55    49    50    1
    56    51    58   ar
    57    51    60   ar
    58    52    53    1
    59    52    54    1
    60    52    55    1
    61    56    62   ar
    62    56    64   ar
    63    56    57    1
    64    58    64   ar
    65    58    59    1
    66    60    62   ar
    67    60    61    1
    68    62    63    1
    69    64    65    1
@<TRIPOS>SUBSTRUCTURE
     1 RES1        1 GROUP             0 ****  ****    0  
@<TRIPOS>MOLECULE
LIGAND_00342
    65    69     1     0     0
SMALL
USER_CHARGES
****
Generated from the CSD

@<TRIPOS>ATOM
     1 C1      -0.3070  -4.3808 -11.5412   C.ar      1 RES1   0.0000
     2 H2       0.3356  -5.1864 -11.2025   H         1 RES1   0.0000
     3 C3      -1.9074  -2.2999 -12.4016   C.ar      1 RES1   0.0000
     4 H4      -2.5275  -1.4754 -12.7375   H         1 RES1   0.0000
     5 C5      -1.0916  -4.5624 -12.6762   C.ar      1 RES1   0.0000
     6 C6      -0.3246  -3.1900 -10.8369   C.ar      1 RES1   0.0000
     7 H7       0.2833  -3.0612  -9.9476   H         1 RES1   0.0000
     8 C8      -1.1246  -2.1786 -11.2891   C.ar      1 RES1   0.0000
     9 C9      -1.8908  -3.4999 -13.0886   C.ar      1 RES1   0.0000
    10 H10     -2.5195  -3.6103 -13.9648   H         1 RES1   0.0000
    11 C11     -1.0802  -5.8453 -13.4516   C.2       1 RES1   0.0000
    12 F12     -1.1428  -1.0026 -10.6045   F         1 RES1   0.0000
    13 N13     -1.3017  -7.9299 -14.1918   N.am      1 RES1   0.0000
    14 C14     -1.6529  -9.3782 -14.3808   C.3       1 RES1   0.0000
    15 H15     -1.3238  -9.6787 -15.3745   H         1 RES1   0.0000
    16 C16     -0.5255  -7.6115 -16.5737   C.3       1 RES1   0.0000
    17 H17      0.0175  -6.8709 -17.1573   H         1 RES1   0.0000
    18 H18      0.0331  -8.5446 -16.6069   H         1 RES1   0.0000
    19 H19     -1.4906  -7.7766 -17.0482   H         1 RES1   0.0000
    20 C20     -0.5870  -5.9122 -14.7311   C.2       1 RES1   0.0000
    21 C21      0.0604  -4.8376 -15.5265   C.ar      1 RES1   0.0000
    22 O22     -2.0607  -7.5885 -12.0942   O.2       1 RES1   0.0000
    23 C23     -1.5366  -7.1528 -13.1110   C.2       1 RES1   0.0000
    24 N24     -0.6991  -7.1583 -15.1932   N.pl3     1 RES1   0.0000
    25 C25     -1.2470 -11.7175 -13.5503   C.3       1 RES1   0.0000
    26 H26     -0.7485 -12.3034 -12.7795   H         1 RES1   0.0000
    27 H27     -0.9004 -12.0386 -14.5314   H         1 RES1   0.0000
    28 C28     -3.4755 -11.1050 -14.4506   C.3       1 RES1   0.0000
    29 H29     -3.1956 -11.4205 -15.4547   H         1 RES1   0.0000
    30 H30     -4.5441 -11.2581 -14.3068   H         1 RES1   0.0000
    31 C31     -3.1560  -9.6270 -14.2844   C.3       1 RES1   0.0000
    32 H32     -3.6613  -9.0632 -15.0671   H         1 RES1   0.0000
    33 H33     -3.5104  -9.2934 -13.3102   H         1 RES1   0.0000
    34 C34     -0.9219 -10.2466 -13.3562   C.3       1 RES1   0.0000
    35 H35     -1.2249  -9.9451 -12.3546   H         1 RES1   0.0000
    36 H36      0.1515 -10.1022 -13.4696   H         1 RES1   0.0000
    37 N37     -2.7249 -11.9230 -13.4531   N.4       1 RES1   1.0000
    38 H38     -3.0303 -11.6626 -12.5209   H         1 RES1   0.0000
    39 H39     -2.9296 -12.9039 -13.6146   H         1 RES1   0.0000
    40 N40      1.3518  -5.0181 -15.8447   N.ar      1 RES1   0.0000
    41 C41      0.0944  -2.7605 -16.6407   C.ar      1 RES1   0.0000
    42 H42     -0.4181  -1.8597 -16.9618   H         1 RES1   0.0000
    43 N43      3.2523  -4.2108 -16.8421   N.pl3     1 RES1   0.0000
    44 H44      3.7216  -5.0424 -16.4835   H         1 RES1   0.0000
    45 C45     -0.6202  -3.6935 -15.9166   C.ar      1 RES1   0.0000
    46 H46     -1.6635  -3.5377 -15.6629   H         1 RES1   0.0000
    47 C47      1.9548  -4.0414 -16.5414   C.ar      1 RES1   0.0000
    48 N48      1.3851  -2.9047 -16.9677   N.ar      1 RES1   0.0000
    49 C49      4.0511  -3.2467 -17.5984   C.3       1 RES1   0.0000
    50 H50      3.3833  -2.6860 -18.2706   H         1 RES1   0.0000
    51 C51      5.1258  -3.9151 -18.4330   C.ar      1 RES1   0.0000
    52 C52      4.6656  -2.2719 -16.6007   C.3       1 RES1   0.0000
    53 H53      5.2473  -1.5092 -17.1142   H         1 RES1   0.0000
    54 H54      3.8927  -1.7740 -16.0190   H         1 RES1   0.0000
    55 H55      5.3256  -2.7934 -15.9107   H         1 RES1   0.0000
    56 C56      7.1116  -5.1354 -19.9588   C.ar      1 RES1   0.0000
    57 H57      7.8849  -5.6113 -20.5526   H         1 RES1   0.0000
    58 C58      6.4649  -3.6176 -18.2247   C.ar      1 RES1   0.0000
    59 H59      6.7417  -2.9007 -17.4587   H         1 RES1   0.0000
    60 C60      4.7980  -4.8332 -19.4211   C.ar      1 RES1   0.0000
    61 H61      3.7574  -5.0805 -19.6034   H         1 RES1   0.0000
    62 C62      5.7861  -5.4393 -20.1785   C.ar      1 RES1   0.0000
    63 H63      5.5150  -6.1555 -20.9470   H         1 RES1   0.0000
    64 C64      7.4516  -4.2251 -18.9824   C.ar      1 RES1   0.0000
    65 H65      8.4946  -3.9835 -18.8066   H         1 RES1   0.0000
@<TRIPOS>BOND
     1     1     5   ar
     2     1     6   ar
     3     1     2    1
     4     3     8   ar
     5     3     9   ar
     6     3     4    1
     7     5     9   ar
     8     5    11    1
     9     6     8   ar
    10     6     7    1
    11     8    12    1
    12     9    10    1
    13    11    20    2
    14    11    23    1
    15    13    14    1
    16    13    23   am
    17    13    24    1
    18    14    31    1
    19    14    34    1
    20    14    15    1
    21    16    24    1
    22    16    17    1
    23    16    18    1
    24    16    19    1
    25    20    21    1
    26    20    24    1
    27    21    40   ar
    28    21    45   ar
    29    22    23    2
    30    25    34    1
    31    25    37    1
    32    25    26    1
    33    25    27    1
    34    28    31    1
    35    28    37    1
    36    28    29    1
    37    28    30    1
    38    31    32    1
    39    31    33    1
    40    34    35    1
    41    34    36    1
    42    37    38    1
    43    37    39    1
    44    40    47   ar
    45    41    45   ar
    46    41    48   ar
    47    41    42    1
    48    43    47    1
    49    43    49    1
    50    43    44    1
    51    45    46    1
    52    47    48   ar
    53    49    51    1
    54    49    52    1
    55    49    50    1
    56    51    58   ar
    57    51    60   ar
    58    52    53    1
    59    52    54    1
    60    52    55    1
    61    56    62   ar
    62    56    64   ar
    63    56    57    1
    64    58    64   ar
    65    58    59    1
    66    60    62   ar
    67    60    61    1
    68    62    63    1
    69    64    65    1
@<TRIPOS>SUBSTRUCTURE
     1 RES1        1 GROUP             0 ****  ****    0  
@<TRIPOS>MOLECULE
LIGAND_00343
    65    69     1     0     0
SMALL
USER_CHARGES
****
Generated from the CSD

@<TRIPOS>ATOM
     1 C1      -0.3071  -4.3807 -11.5412   C.ar      1 RES1   0.0000
     2 H2       0.3355  -5.1862 -11.2026   H         1 RES1   0.0000
     3 C3      -1.9076  -2.2999 -12.4017   C.ar      1 RES1   0.0000
     4 H4      -2.5278  -1.4755 -12.7375   H         1 RES1   0.0000
     5 C5      -1.0917  -4.5623 -12.6762   C.ar      1 RES1   0.0000
     6 C6      -0.3248  -3.1898 -10.8369   C.ar      1 RES1   0.0000
     7 H7       0.2832  -3.0610  -9.9477   H         1 RES1   0.0000
     8 C8      -1.1248  -2.1785 -11.2892   C.ar      1 RES1   0.0000
     9 C9      -1.8910  -3.4999 -13.0887   C.ar      1 RES1   0.0000
    10 H10     -2.5197  -3.6103 -13.9648   H         1 RES1   0.0000
    11 C11     -1.0803  -5.8452 -13.4516   C.2       1 RES1   0.0000
    12 F12     -1.1431  -1.0026 -10.6046   F         1 RES1   0.0000
    13 N13     -1.3017  -7.9299 -14.1917   N.am      1 RES1   0.0000
    14 C14     -1.6528  -9.3782 -14.3808   C.3       1 RES1   0.0000
    15 H15     -1.3239  -9.6787 -15.3745   H         1 RES1   0.0000
    16 C16     -0.5254  -7.6115 -16.5737   C.3       1 RES1   0.0000
    17 H17      0.0109  -6.8676 -17.1592   H         1 RES1   0.0000
    18 H18      0.0399  -8.5406 -16.6073   H         1 RES1   0.0000
    19 H19     -1.4904  -7.7841 -17.0457   H         1 RES1   0.0000
    20 C20     -0.5870  -5.9122 -14.7311   C.2       1 RES1   0.0000
    21 C21      0.0604  -4.8376 -15.5265   C.ar      1 RES1   0.0000
    22 O22     -2.0608  -7.5885 -12.0942   O.2       1 RES1   0.0000
    23 C23     -1.5367  -7.1528 -13.1110   C.2       1 RES1   0.0000
    24 N24     -0.6990  -7.1583 -15.1932   N.pl3     1 RES1   0.0000
    25 C25     -1.2467 -11.7175 -13.5504   C.3       1 RES1   0.0000
    26 H26     -0.7480 -12.3034 -12.7797   H         1 RES1   0.0000
    27 H27     -0.9002 -12.0386 -14.5316   H         1 RES1   0.0000
    28 C28     -3.4754 -11.1051 -14.4504   C.3       1 RES1   0.0000
    29 H29     -3.1956 -11.4205 -15.4544   H         1 RES1   0.0000
    30 H30     -4.5439 -11.2582 -14.3063   H         1 RES1   0.0000
    31 C31     -3.1559  -9.6271 -14.2841   C.3       1 RES1   0.0000
    32 H32     -3.6614  -9.0633 -15.0667   H         1 RES1   0.0000
    33 H33     -3.5102  -9.2936 -13.3099   H         1 RES1   0.0000
    34 C34     -0.9216 -10.2466 -13.3563   C.3       1 RES1   0.0000
    35 H35     -1.2245  -9.9452 -12.3547   H         1 RES1   0.0000
    36 H36      0.1517 -10.1022 -13.4699   H         1 RES1   0.0000
    37 N37     -2.7245 -11.9231 -13.4530   N.4       1 RES1   1.0000
    38 H38     -3.0298 -11.6627 -12.5207   H         1 RES1   0.0000
    39 H39     -2.9292 -12.9040 -13.6144   H         1 RES1   0.0000
    40 N40      1.3518  -5.0181 -15.8447   N.ar      1 RES1   0.0000
    41 C41      0.0944  -2.7605 -16.6407   C.ar      1 RES1   0.0000
    42 H42     -0.4181  -1.8597 -16.9618   H         1 RES1   0.0000
    43 N43      3.2523  -4.2108 -16.8421   N.pl3     1 RES1   0.0000
    44 H44      3.7076  -3.4992 -17.4135   H         1 RES1   0.0000
    45 C45     -0.6202  -3.6935 -15.9166   C.ar      1 RES1   0.0000
    46 H46     -1.6635  -3.5377 -15.6629   H         1 RES1   0.0000
    47 C47      1.9548  -4.0414 -16.5414   C.ar      1 RES1   0.0000
    48 N48      1.3851  -2.9047 -16.9677   N.ar      1 RES1   0.0000
    49 C49      4.0371  -5.3829 -16.4548   C.3       1 RES1   0.0000
    50 H50      3.6094  -5.8042 -15.5319   H         1 RES1   0.0000
    51 C51      5.4933  -5.0454 -16.2016   C.ar      1 RES1   0.0000
    52 C52      3.9044  -6.4163 -17.5672   C.3       1 RES1   0.0000
    53 H53      4.4451  -7.3263 -17.3156   H         1 RES1   0.0000
    54 H54      2.8609  -6.6769 -17.7317   H         1 RES1   0.0000
    55 H55      4.3081  -6.0299 -18.5007   H         1 RES1   0.0000
    56 C56      8.1732  -4.4350 -15.7478   C.ar      1 RES1   0.0000
    57 H57      9.2168  -4.1966 -15.5714   H         1 RES1   0.0000
    58 C58      6.4950  -5.6452 -16.9511   C.ar      1 RES1   0.0000
    59 H59      6.2313  -6.3609 -17.7228   H         1 RES1   0.0000
    60 C60      5.8573  -4.1356 -15.2184   C.ar      1 RES1   0.0000
    61 H61      5.0916  -3.6551 -14.6184   H         1 RES1   0.0000
    62 C62      7.1897  -3.8329 -14.9942   C.ar      1 RES1   0.0000
    63 H63      7.4593  -3.1194 -14.2227   H         1 RES1   0.0000
    64 C64      7.8267  -5.3408 -16.7260   C.ar      1 RES1   0.0000
    65 H65      8.5987  -5.8167 -17.3215   H         1 RES1   0.0000
@<TRIPOS>BOND
     1     1     5   ar
     2     1     6   ar
     3     1     2    1
     4     3     8   ar
     5     3     9   ar
     6     3     4    1
     7     5     9   ar
     8     5    11    1
     9     6     8   ar
    10     6     7    1
    11     8    12    1
    12     9    10    1
    13    11    20    2
    14    11    23    1
    15    13    14    1
    16    13    23   am
    17    13    24    1
    18    14    31    1
    19    14    34    1
    20    14    15    1
    21    16    24    1
    22    16    17    1
    23    16    18    1
    24    16    19    1
    25    20    21    1
    26    20    24    1
    27    21    40   ar
    28    21    45   ar
    29    22    23    2
    30    25    34    1
    31    25    37    1
    32    25    26    1
    33    25    27    1
    34    28    31    1
    35    28    37    1
    36    28    29    1
    37    28    30    1
    38    31    32    1
    39    31    33    1
    40    34    35    1
    41    34    36    1
    42    37    38    1
    43    37    39    1
    44    40    47   ar
    45    41    45   ar
    46    41    48   ar
    47    41    42    1
    48    43    47    1
    49    43    49    1
    50    43    44    1
    51    45    46    1
    52    47    48   ar
    53    49    51    1
    54    49    52    1
    55    49    50    1
    56    51    58   ar
    57    51    60   ar
    58    52    53    1
    59    52    54    1
    60    52    55    1
    61    56    62   ar
    62    56    64   ar
    63    56    57    1
    64    58    64   ar
    65    58    59    1
    66    60    62   ar
    67    60    61    1
    68    62    63    1
    69    64    65    1
@<TRIPOS>SUBSTRUCTURE
     1 RES1        1 GROUP             0 ****  ****    0  
@<TRIPOS>MOLECULE
LIGAND_00344
    65    69     1     0     0
SMALL
USER_CHARGES
****
Generated from the CSD

@<TRIPOS>ATOM
     1 C1      -0.1734  -3.7512 -12.4311   C.ar      1 RES1   0.0000
     2 H2       0.8163  -4.1080 -12.6950   H         1 RES1   0.0000
     3 C3      -2.6840  -2.8012 -11.7784   C.ar      1 RES1   0.0000
     4 H4      -3.6669  -2.4178 -11.5253   H         1 RES1   0.0000
     5 C5      -1.2881  -4.5128 -12.7691   C.ar      1 RES1   0.0000
     6 C6      -0.3010  -2.5429 -11.7691   C.ar      1 RES1   0.0000
     7 H7       0.5745  -1.9608 -11.5013   H         1 RES1   0.0000
     8 C8      -1.5563  -2.0986 -11.4624   C.ar      1 RES1   0.0000
     9 C9      -2.5420  -4.0138 -12.4278   C.ar      1 RES1   0.0000
    10 H10     -3.4308  -4.5851 -12.6702   H         1 RES1   0.0000
    11 C11     -1.1659  -5.8217 -13.4895   C.2       1 RES1   0.0000
    12 F12     -1.6896  -0.9084 -10.8162   F         1 RES1   0.0000
    13 N13     -1.2406  -7.9410 -14.1570   N.am      1 RES1   0.0000
    14 C14     -1.5106  -9.4109 -14.3092   C.3       1 RES1   0.0000
    15 H15     -1.1038  -9.7317 -15.2671   H         1 RES1   0.0000
    16 C16     -0.3252  -7.6743 -16.4955   C.3       1 RES1   0.0000
    17 H17      0.2025  -6.9228 -17.0792   H         1 RES1   0.0000
    18 H18      0.2938  -8.5681 -16.4557   H         1 RES1   0.0000
    19 H19     -1.2474  -7.9231 -17.0165   H         1 RES1   0.0000
    20 C20     -0.5870  -5.9122 -14.7311   C.2       1 RES1   0.0000
    21 C21      0.0604  -4.8376 -15.5265   C.ar      1 RES1   0.0000
    22 O22     -2.1510  -7.5590 -12.1278   O.2       1 RES1   0.0000
    23 C23     -1.5821  -7.1365 -13.1259   C.2       1 RES1   0.0000
    24 N24     -0.6101  -7.1788 -15.1485   N.pl3     1 RES1   0.0000
    25 C25     -1.0506 -11.6947 -13.3607   C.3       1 RES1   0.0000
    26 H26     -0.5764 -12.2260 -12.5368   H         1 RES1   0.0000
    27 H27     -0.6262 -12.0348 -14.3041   H         1 RES1   0.0000
    28 C28     -3.2420 -11.2269 -14.4242   C.3       1 RES1   0.0000
    29 H29     -2.8828 -11.5654 -15.3950   H         1 RES1   0.0000
    30 H30     -4.3093 -11.4269 -14.3421   H         1 RES1   0.0000
    31 C31     -3.0035  -9.7298 -14.2980   C.3       1 RES1   0.0000
    32 H32     -3.4826  -9.2212 -15.1333   H         1 RES1   0.0000
    33 H33     -3.4358  -9.3779 -13.3625   H         1 RES1   0.0000
    34 C34     -0.8080 -10.2034 -13.2061   C.3       1 RES1   0.0000
    35 H35     -1.1894  -9.8800 -12.2387   H         1 RES1   0.0000
    36 H36      0.2626 -10.0106 -13.2572   H         1 RES1   0.0000
    37 N37     -2.5204 -11.9690 -13.3489   N.4       1 RES1   1.0000
    38 H38     -2.8978 -11.6893 -12.4492   H         1 RES1   0.0000
    39 H39     -2.6681 -12.9642 -13.4832   H         1 RES1   0.0000
    40 N40     -0.7059  -3.7852 -15.8536   N.ar      1 RES1   0.0000
    41 C41      1.8690  -3.8559 -16.6763   C.ar      1 RES1   0.0000
    42 H42      2.9047  -3.8883 -16.9980   H         1 RES1   0.0000
    43 N43     -0.9099  -1.7764 -16.9406   N.pl3     1 RES1   0.0000
    44 H44     -1.8927  -1.7972 -16.6687   H         1 RES1   0.0000
    45 C45      1.3859  -4.9110 -15.9288   C.ar      1 RES1   0.0000
    46 H46      2.0127  -5.7582 -15.6708   H         1 RES1   0.0000
    47 C47     -0.1387  -2.8196 -16.5946   C.ar      1 RES1   0.0000
    48 N48      1.1302  -2.7954 -17.0275   N.ar      1 RES1   0.0000
    49 C49     -0.4442  -0.6416 -17.7374   C.3       1 RES1   0.0000
    50 H50      0.6405  -0.5268 -17.5871   H         1 RES1   0.0000
    51 C51     -1.1252   0.6559 -17.3484   C.ar      1 RES1   0.0000
    52 C52     -0.6989  -0.9706 -19.2037   C.3       1 RES1   0.0000
    53 H53     -0.3401  -0.1700 -19.8471   H         1 RES1   0.0000
    54 H54     -0.1895  -1.8886 -19.4891   H         1 RES1   0.0000
    55 H55     -1.7630  -1.1022 -19.3887   H         1 RES1   0.0000
    56 C56     -2.3897   3.0320 -16.6304   C.ar      1 RES1   0.0000
    57 H57     -2.8817   3.9575 -16.3501   H         1 RES1   0.0000
    58 C58     -2.4435   0.6562 -16.9159   C.ar      1 RES1   0.0000
    59 H59     -2.9884  -0.2802 -16.8571   H         1 RES1   0.0000
    60 C60     -0.4513   1.8674 -17.4176   C.ar      1 RES1   0.0000
    61 H61      0.5797   1.8923 -17.7547   H         1 RES1   0.0000
    62 C62     -1.0809   3.0477 -17.0601   C.ar      1 RES1   0.0000
    63 H63     -0.5415   3.9872 -17.1186   H         1 RES1   0.0000
    64 C64     -3.0713   1.8372 -16.5580   C.ar      1 RES1   0.0000
    65 H65     -4.1020   1.8212 -16.2199   H         1 RES1   0.0000
@<TRIPOS>BOND
     1     1     5   ar
     2     1     6   ar
     3     1     2    1
     4     3     8   ar
     5     3     9   ar
     6     3     4    1
     7     5     9   ar
     8     5    11    1
     9     6     8   ar
    10     6     7    1
    11     8    12    1
    12     9    10    1
    13    11    20    2
    14    11    23    1
    15    13    14    1
    16    13    23   am
    17    13    24    1
    18    14    31    1
    19    14    34    1
    20    14    15    1
    21    16    24    1
    22    16    17    1
    23    16    18    1
    24    16    19    1
    25    20    21    1
    26    20    24    1
    27    21    40   ar
    28    21    45   ar
    29    22    23    2
    30    25    34    1
    31    25    37    1
    32    25    26    1
    33    25    27    1
    34    28    31    1
    35    28    37    1
    36    28    29    1
    37    28    30    1
    38    31    32    1
    39    31    33    1
    40    34    35    1
    41    34    36    1
    42    37    38    1
    43    37    39    1
    44    40    47   ar
    45    41    45   ar
    46    41    48   ar
    47    41    42    1
    48    43    47    1
    49    43    49    1
    50    43    44    1
    51    45    46    1
    52    47    48   ar
    53    49    51    1
    54    49    52    1
    55    49    50    1
    56    51    58   ar
    57    51    60   ar
    58    52    53    1
    59    52    54    1
    60    52    55    1
    61    56    62   ar
    62    56    64   ar
    63    56    57    1
    64    58    64   ar
    65    58    59    1
    66    60    62   ar
    67    60    61    1
    68    62    63    1
    69    64    65    1
@<TRIPOS>SUBSTRUCTURE
     1 RES1        1 GROUP             0 ****  ****    0  
@<TRIPOS>MOLECULE
LIGAND_00345
    65    69     1     0     0
SMALL
USER_CHARGES
****
Generated from the CSD

@<TRIPOS>ATOM
     1 C1      -0.1734  -3.7512 -12.4311   C.ar      1 RES1   0.0000
     2 H2       0.8163  -4.1080 -12.6950   H         1 RES1   0.0000
     3 C3      -2.6840  -2.8012 -11.7784   C.ar      1 RES1   0.0000
     4 H4      -3.6669  -2.4178 -11.5253   H         1 RES1   0.0000
     5 C5      -1.2881  -4.5128 -12.7691   C.ar      1 RES1   0.0000
     6 C6      -0.3010  -2.5429 -11.7691   C.ar      1 RES1   0.0000
     7 H7       0.5745  -1.9608 -11.5013   H         1 RES1   0.0000
     8 C8      -1.5563  -2.0986 -11.4624   C.ar      1 RES1   0.0000
     9 C9      -2.5420  -4.0138 -12.4278   C.ar      1 RES1   0.0000
    10 H10     -3.4308  -4.5851 -12.6702   H         1 RES1   0.0000
    11 C11     -1.1659  -5.8217 -13.4895   C.2       1 RES1   0.0000
    12 F12     -1.6896  -0.9084 -10.8162   F         1 RES1   0.0000
    13 N13     -1.2406  -7.9410 -14.1570   N.am      1 RES1   0.0000
    14 C14     -1.5106  -9.4109 -14.3092   C.3       1 RES1   0.0000
    15 H15     -1.1037  -9.7317 -15.2671   H         1 RES1   0.0000
    16 C16     -0.3252  -7.6743 -16.4955   C.3       1 RES1   0.0000
    17 H17      0.1871  -6.9165 -17.0847   H         1 RES1   0.0000
    18 H18      0.3081  -8.5581 -16.4563   H         1 RES1   0.0000
    19 H19     -1.2463  -7.9393 -17.0103   H         1 RES1   0.0000
    20 C20     -0.5870  -5.9122 -14.7311   C.2       1 RES1   0.0000
    21 C21      0.0604  -4.8376 -15.5265   C.ar      1 RES1   0.0000
    22 O22     -2.1510  -7.5590 -12.1278   O.2       1 RES1   0.0000
    23 C23     -1.5821  -7.1365 -13.1259   C.2       1 RES1   0.0000
    24 N24     -0.6101  -7.1788 -15.1485   N.pl3     1 RES1   0.0000
    25 C25     -1.0506 -11.6947 -13.3607   C.3       1 RES1   0.0000
    26 H26     -0.5764 -12.2260 -12.5368   H         1 RES1   0.0000
    27 H27     -0.6262 -12.0348 -14.3041   H         1 RES1   0.0000
    28 C28     -3.2420 -11.2269 -14.4242   C.3       1 RES1   0.0000
    29 H29     -2.8828 -11.5654 -15.3950   H         1 RES1   0.0000
    30 H30     -4.3093 -11.4269 -14.3421   H         1 RES1   0.0000
    31 C31     -3.0035  -9.7298 -14.2980   C.3       1 RES1   0.0000
    32 H32     -3.4826  -9.2212 -15.1333   H         1 RES1   0.0000
    33 H33     -3.4358  -9.3779 -13.3625   H         1 RES1   0.0000
    34 C34     -0.8080 -10.2034 -13.2061   C.3       1 RES1   0.0000
    35 H35     -1.1894  -9.8800 -12.2387   H         1 RES1   0.0000
    36 H36      0.2625 -10.0106 -13.2571   H         1 RES1   0.0000
    37 N37     -2.5204 -11.9690 -13.3489   N.4       1 RES1   1.0000
    38 H38     -2.8978 -11.6893 -12.4492   H         1 RES1   0.0000
    39 H39     -2.6681 -12.9642 -13.4832   H         1 RES1   0.0000
    40 N40     -0.7059  -3.7852 -15.8536   N.ar      1 RES1   0.0000
    41 C41      1.8690  -3.8559 -16.6763   C.ar      1 RES1   0.0000
    42 H42      2.9047  -3.8883 -16.9980   H         1 RES1   0.0000
    43 N43     -0.9099  -1.7764 -16.9406   N.pl3     1 RES1   0.0000
    44 H44     -0.4767  -1.0132 -17.4605   H         1 RES1   0.0000
    45 C45      1.3859  -4.9110 -15.9288   C.ar      1 RES1   0.0000
    46 H46      2.0127  -5.7582 -15.6708   H         1 RES1   0.0000
    47 C47     -0.1387  -2.8196 -16.5946   C.ar      1 RES1   0.0000
    48 N48      1.1302  -2.7954 -17.0275   N.ar      1 RES1   0.0000
    49 C49     -2.3165  -1.6365 -16.5646   C.3       1 RES1   0.0000
    50 H50     -2.7428  -2.6406 -16.4147   H         1 RES1   0.0000
    51 C51     -3.1297  -0.9203 -17.6248   C.ar      1 RES1   0.0000
    52 C52     -2.3683  -0.8845 -15.2399   C.3       1 RES1   0.0000
    53 H53     -3.3949  -0.7799 -14.8950   H         1 RES1   0.0000
    54 H54     -1.8052  -1.4117 -14.4726   H         1 RES1   0.0000
    55 H55     -1.9442   0.1117 -15.3468   H         1 RES1   0.0000
    56 C56     -4.6115   0.4045 -19.5767   C.ar      1 RES1   0.0000
    57 H57     -5.1886   0.9198 -20.3373   H         1 RES1   0.0000
    58 C58     -2.5549   0.0797 -18.3961   C.ar      1 RES1   0.0000
    59 H59     -1.5161   0.3490 -18.2366   H         1 RES1   0.0000
    60 C60     -4.4612  -1.2439 -17.8464   C.ar      1 RES1   0.0000
    61 H61     -4.9328  -2.0212 -17.2545   H         1 RES1   0.0000
    62 C62     -5.1965  -0.5848 -18.8172   C.ar      1 RES1   0.0000
    63 H63     -6.2361  -0.8488 -18.9798   H         1 RES1   0.0000
    64 C64     -3.2914   0.7371 -19.3668   C.ar      1 RES1   0.0000
    65 H65     -2.8275   1.5156 -19.9632   H         1 RES1   0.0000
@<TRIPOS>BOND
     1     1     5   ar
     2     1     6   ar
     3     1     2    1
     4     3     8   ar
     5     3     9   ar
     6     3     4    1
     7     5     9   ar
     8     5    11    1
     9     6     8   ar
    10     6     7    1
    11     8    12    1
    12     9    10    1
    13    11    20    2
    14    11    23    1
    15    13    14    1
    16    13    23   am
    17    13    24    1
    18    14    31    1
    19    14    34    1
    20    14    15    1
    21    16    24    1
    22    16    17    1
    23    16    18    1
    24    16    19    1
    25    20    21    1
    26    20    24    1
    27    21    40   ar
    28    21    45   ar
    29    22    23    2
    30    25    34    1
    31    25    37    1
    32    25    26    1
    33    25    27    1
    34    28    31    1
    35    28    37    1
    36    28    29    1
    37    28    30    1
    38    31    32    1
    39    31    33    1
    40    34    35    1
    41    34    36    1
    42    37    38    1
    43    37    39    1
    44    40    47   ar
    45    41    45   ar
    46    41    48   ar
    47    41    42    1
    48    43    47    1
    49    43    49    1
    50    43    44    1
    51    45    46    1
    52    47    48   ar
    53    49    51    1
    54    49    52    1
    55    49    50    1
    56    51    58   ar
    57    51    60   ar
    58    52    53    1
    59    52    54    1
    60    52    55    1
    61    56    62   ar
    62    56    64   ar
    63    56    57    1
    64    58    64   ar
    65    58    59    1
    66    60    62   ar
    67    60    61    1
    68    62    63    1
    69    64    65    1
@<TRIPOS>SUBSTRUCTURE
     1 RES1        1 GROUP             0 ****  ****    0  
@<TRIPOS>MOLECULE
LIGAND_00346
    65    69     1     0     0
SMALL
USER_CHARGES
****
Generated from the CSD

@<TRIPOS>ATOM
     1 C1      -0.7001  -4.2979 -11.5266   C.ar      1 RES1   0.0000
     2 H2      -0.1331  -5.0961 -11.0599   H         1 RES1   0.0000
     3 C3      -2.1087  -2.2360 -12.7083   C.ar      1 RES1   0.0000
     4 H4      -2.6538  -1.4189 -13.1691   H         1 RES1   0.0000
     5 C5      -1.2886  -4.5127 -12.7694   C.ar      1 RES1   0.0000
     6 C6      -0.8183  -3.0833 -10.8745   C.ar      1 RES1   0.0000
     7 H7      -0.3641  -2.9284  -9.9015   H         1 RES1   0.0000
     8 C8      -1.5190  -2.0822 -11.4860   C.ar      1 RES1   0.0000
     9 C9      -1.9946  -3.4591 -13.3432   C.ar      1 RES1   0.0000
    10 H10     -2.4712  -3.5949 -14.3074   H         1 RES1   0.0000
    11 C11     -1.1661  -5.8217 -13.4896   C.2       1 RES1   0.0000
    12 F12     -1.6347  -0.8831 -10.8529   F         1 RES1   0.0000
    13 N13     -1.2405  -7.9411 -14.1569   N.am      1 RES1   0.0000
    14 C14     -1.5102  -9.4110 -14.3090   C.3       1 RES1   0.0000
    15 H15     -1.1030  -9.7319 -15.2667   H         1 RES1   0.0000
    16 C16     -0.3247  -7.6744 -16.4953   C.3       1 RES1   0.0000
    17 H17      0.2604  -6.9493 -17.0571   H         1 RES1   0.0000
    18 H18      0.2384  -8.6045 -16.4538   H         1 RES1   0.0000
    19 H19     -1.2480  -7.8607 -17.0398   H         1 RES1   0.0000
    20 C20     -0.5870  -5.9122 -14.7311   C.2       1 RES1   0.0000
    21 C21      0.0604  -4.8376 -15.5265   C.ar      1 RES1   0.0000
    22 O22     -2.1512  -7.5589 -12.1279   O.2       1 RES1   0.0000
    23 C23     -1.5822  -7.1364 -13.1259   C.2       1 RES1   0.0000
    24 N24     -0.6099  -7.1788 -15.1483   N.pl3     1 RES1   0.0000
    25 C25     -1.0504 -11.6946 -13.3600   C.3       1 RES1   0.0000
    26 H26     -0.5765 -12.2258 -12.5358   H         1 RES1   0.0000
    27 H27     -0.6256 -12.0348 -14.3032   H         1 RES1   0.0000
    28 C28     -3.2414 -11.2272 -14.4245   C.3       1 RES1   0.0000
    29 H29     -2.8818 -11.5658 -15.3950   H         1 RES1   0.0000
    30 H30     -4.3087 -11.4273 -14.3428   H         1 RES1   0.0000
    31 C31     -3.0031  -9.7300 -14.2984   C.3       1 RES1   0.0000
    32 H32     -3.4819  -9.2215 -15.1339   H         1 RES1   0.0000
    33 H33     -3.4358  -9.3780 -13.3631   H         1 RES1   0.0000
    34 C34     -0.8080 -10.2032 -13.2055   C.3       1 RES1   0.0000
    35 H35     -1.1898  -9.8797 -12.2383   H         1 RES1   0.0000
    36 H36      0.2625 -10.0103 -13.2562   H         1 RES1   0.0000
    37 N37     -2.5202 -11.9690 -13.3488   N.4       1 RES1   1.0000
    38 H38     -2.8980 -11.6893 -12.4492   H         1 RES1   0.0000
    39 H39     -2.6677 -12.9643 -13.4830   H         1 RES1   0.0000
    40 N40      1.1204  -4.2311 -14.9697   N.ar      1 RES1   0.0000
    41 C41      0.2729  -3.4391 -17.4122   C.ar      1 RES1   0.0000
    42 H42     -0.0691  -3.1305 -18.3946   H         1 RES1   0.0000
    43 N43      2.7453  -2.6186 -15.1035   N.pl3     1 RES1   0.0000
    44 H44      3.0125  -2.8943 -14.1586   H         1 RES1   0.0000
    45 C45     -0.4048  -4.4607 -16.7778   C.ar      1 RES1   0.0000
    46 H46     -1.2618  -4.9437 -17.2355   H         1 RES1   0.0000
    47 C47      1.6980  -3.2405 -15.6683   C.ar      1 RES1   0.0000
    48 N48      1.3280  -2.8070 -16.8822   N.ar      1 RES1   0.0000
    49 C49      3.4877  -1.5271 -15.7336   C.3       1 RES1   0.0000
    50 H50      3.4030  -1.6281 -16.8267   H         1 RES1   0.0000
    51 C51      4.9571  -1.5366 -15.3604   C.ar      1 RES1   0.0000
    52 C52      2.8292  -0.2178 -15.3147   C.3       1 RES1   0.0000
    53 H53      3.3240   0.6305 -15.7831   H         1 RES1   0.0000
    54 H54      1.7808  -0.2011 -15.6049   H         1 RES1   0.0000
    55 H55      2.8841  -0.0882 -14.2358   H         1 RES1   0.0000
    56 C56      7.6534  -1.5597 -14.6607   C.ar      1 RES1   0.0000
    57 H57      8.7037  -1.5693 -14.3886   H         1 RES1   0.0000
    58 C58      5.3611  -1.9647 -14.1040   C.ar      1 RES1   0.0000
    59 H59      4.6178  -2.2939 -13.3855   H         1 RES1   0.0000
    60 C60      5.9274  -1.1175 -16.2603   C.ar      1 RES1   0.0000
    61 H61      5.6354  -0.7768 -17.2481   H         1 RES1   0.0000
    62 C62      7.2673  -1.1299 -15.9112   C.ar      1 RES1   0.0000
    63 H63      8.0148  -0.8002 -16.6251   H         1 RES1   0.0000
    64 C64      6.7013  -1.9771 -13.7570   C.ar      1 RES1   0.0000
    65 H65      7.0019  -2.3163 -12.7713   H         1 RES1   0.0000
@<TRIPOS>BOND
     1     1     5   ar
     2     1     6   ar
     3     1     2    1
     4     3     8   ar
     5     3     9   ar
     6     3     4    1
     7     5     9   ar
     8     5    11    1
     9     6     8   ar
    10     6     7    1
    11     8    12    1
    12     9    10    1
    13    11    20    2
    14    11    23    1
    15    13    14    1
    16    13    23   am
    17    13    24    1
    18    14    31    1
    19    14    34    1
    20    14    15    1
    21    16    24    1
    22    16    17    1
    23    16    18    1
    24    16    19    1
    25    20    21    1
    26    20    24    1
    27    21    40   ar
    28    21    45   ar
    29    22    23    2
    30    25    34    1
    31    25    37    1
    32    25    26    1
    33    25    27    1
    34    28    31    1
    35    28    37    1
    36    28    29    1
    37    28    30    1
    38    31    32    1
    39    31    33    1
    40    34    35    1
    41    34    36    1
    42    37    38    1
    43    37    39    1
    44    40    47   ar
    45    41    45   ar
    46    41    48   ar
    47    41    42    1
    48    43    47    1
    49    43    49    1
    50    43    44    1
    51    45    46    1
    52    47    48   ar
    53    49    51    1
    54    49    52    1
    55    49    50    1
    56    51    58   ar
    57    51    60   ar
    58    52    53    1
    59    52    54    1
    60    52    55    1
    61    56    62   ar
    62    56    64   ar
    63    56    57    1
    64    58    64   ar
    65    58    59    1
    66    60    62   ar
    67    60    61    1
    68    62    63    1
    69    64    65    1
@<TRIPOS>SUBSTRUCTURE
     1 RES1        1 GROUP             0 ****  ****    0  
@<TRIPOS>MOLECULE
LIGAND_00347
    65    69     1     0     0
SMALL
USER_CHARGES
****
Generated from the CSD

@<TRIPOS>ATOM
     1 C1      -0.6995  -4.2982 -11.5265   C.ar      1 RES1   0.0000
     2 H2      -0.1324  -5.0965 -11.0599   H         1 RES1   0.0000
     3 C3      -2.1080  -2.2360 -12.7077   C.ar      1 RES1   0.0000
     4 H4      -2.6531  -1.4188 -13.1684   H         1 RES1   0.0000
     5 C5      -1.2881  -4.5128 -12.7691   C.ar      1 RES1   0.0000
     6 C6      -0.8174  -3.0836 -10.8742   C.ar      1 RES1   0.0000
     7 H7      -0.3631  -2.9289  -9.9013   H         1 RES1   0.0000
     8 C8      -1.5181  -2.0823 -11.4855   C.ar      1 RES1   0.0000
     9 C9      -1.9941  -3.4591 -13.3428   C.ar      1 RES1   0.0000
    10 H10     -2.4708  -3.5948 -14.3069   H         1 RES1   0.0000
    11 C11     -1.1659  -5.8217 -13.4895   C.2       1 RES1   0.0000
    12 F12     -1.6336  -0.8833 -10.8523   F         1 RES1   0.0000
    13 N13     -1.2406  -7.9410 -14.1570   N.am      1 RES1   0.0000
    14 C14     -1.5105  -9.4109 -14.3092   C.3       1 RES1   0.0000
    15 H15     -1.1035  -9.7318 -15.2669   H         1 RES1   0.0000
    16 C16     -0.3252  -7.6743 -16.4955   C.3       1 RES1   0.0000
    17 H17      0.2625  -6.9505 -17.0563   H         1 RES1   0.0000
    18 H18      0.2352  -8.6060 -16.4541   H         1 RES1   0.0000
    19 H19     -1.2486  -7.8575 -17.0409   H         1 RES1   0.0000
    20 C20     -0.5870  -5.9122 -14.7311   C.2       1 RES1   0.0000
    21 C21      0.0604  -4.8376 -15.5265   C.ar      1 RES1   0.0000
    22 O22     -2.1510  -7.5590 -12.1278   O.2       1 RES1   0.0000
    23 C23     -1.5821  -7.1365 -13.1259   C.2       1 RES1   0.0000
    24 N24     -0.6101  -7.1788 -15.1484   N.pl3     1 RES1   0.0000
    25 C25     -1.0508 -11.6946 -13.3604   C.3       1 RES1   0.0000
    26 H26     -0.5768 -12.2260 -12.5365   H         1 RES1   0.0000
    27 H27     -0.6262 -12.0348 -14.3038   H         1 RES1   0.0000
    28 C28     -3.2419 -11.2269 -14.4245   C.3       1 RES1   0.0000
    29 H29     -2.8826 -11.5655 -15.3951   H         1 RES1   0.0000
    30 H30     -4.3093 -11.4269 -14.3426   H         1 RES1   0.0000
    31 C31     -3.0034  -9.7298 -14.2983   C.3       1 RES1   0.0000
    32 H32     -3.4824  -9.2212 -15.1337   H         1 RES1   0.0000
    33 H33     -3.4360  -9.3778 -13.3629   H         1 RES1   0.0000
    34 C34     -0.8082 -10.2033 -13.2059   C.3       1 RES1   0.0000
    35 H35     -1.1898  -9.8799 -12.2386   H         1 RES1   0.0000
    36 H36      0.2624 -10.0105 -13.2567   H         1 RES1   0.0000
    37 N37     -2.5206 -11.9690 -13.3490   N.4       1 RES1   1.0000
    38 H38     -2.8982 -11.6892 -12.4493   H         1 RES1   0.0000
    39 H39     -2.6682 -12.9642 -13.4833   H         1 RES1   0.0000
    40 N40      1.1204  -4.2311 -14.9697   N.ar      1 RES1   0.0000
    41 C41      0.2729  -3.4391 -17.4122   C.ar      1 RES1   0.0000
    42 H42     -0.0691  -3.1305 -18.3946   H         1 RES1   0.0000
    43 N43      2.7453  -2.6186 -15.1035   N.pl3     1 RES1   0.0000
    44 H44      3.2234  -1.8989 -15.6456   H         1 RES1   0.0000
    45 C45     -0.4048  -4.4607 -16.7778   C.ar      1 RES1   0.0000
    46 H46     -1.2618  -4.9437 -17.2355   H         1 RES1   0.0000
    47 C47      1.6980  -3.2405 -15.6683   C.ar      1 RES1   0.0000
    48 N48      1.3280  -2.8070 -16.8822   N.ar      1 RES1   0.0000
    49 C49      3.2828  -2.9520 -13.7846   C.3       1 RES1   0.0000
    50 H50      2.4755  -3.3858 -13.1744   H         1 RES1   0.0000
    51 C51      3.8353  -1.7391 -13.0622   C.ar      1 RES1   0.0000
    52 C52      4.3647  -4.0078 -13.9797   C.3       1 RES1   0.0000
    53 H53      4.7788  -4.3179 -13.0226   H         1 RES1   0.0000
    54 H54      3.9620  -4.8883 -14.4759   H         1 RES1   0.0000
    55 H55      5.1770  -3.6173 -14.5892   H         1 RES1   0.0000
    56 C56      4.8550   0.4958 -11.7484   C.ar      1 RES1   0.0000
    57 H57      5.2514   1.3665 -11.2366   H         1 RES1   0.0000
    58 C58      4.4348  -0.7094 -13.7732   C.ar      1 RES1   0.0000
    59 H59      4.5076  -0.7758 -14.8537   H         1 RES1   0.0000
    60 C60      3.7575  -1.6312 -11.6804   C.ar      1 RES1   0.0000
    61 H61      3.2947  -2.4247 -11.1030   H         1 RES1   0.0000
    62 C62      4.2644  -0.5196 -11.0288   C.ar      1 RES1   0.0000
    63 H63      4.1959  -0.4487  -9.9484   H         1 RES1   0.0000
    64 C64      4.9404   0.4017 -13.1200   C.ar      1 RES1   0.0000
    65 H65      5.4047   1.1996 -13.6898   H         1 RES1   0.0000
@<TRIPOS>BOND
     1     1     5   ar
     2     1     6   ar
     3     1     2    1
     4     3     8   ar
     5     3     9   ar
     6     3     4    1
     7     5     9   ar
     8     5    11    1
     9     6     8   ar
    10     6     7    1
    11     8    12    1
    12     9    10    1
    13    11    20    2
    14    11    23    1
    15    13    14    1
    16    13    23   am
    17    13    24    1
    18    14    31    1
    19    14    34    1
    20    14    15    1
    21    16    24    1
    22    16    17    1
    23    16    18    1
    24    16    19    1
    25    20    21    1
    26    20    24    1
    27    21    40   ar
    28    21    45   ar
    29    22    23    2
    30    25    34    1
    31    25    37    1
    32    25    26    1
    33    25    27    1
    34    28    31    1
    35    28    37    1
    36    28    29    1
    37    28    30    1
    38    31    32    1
    39    31    33    1
    40    34    35    1
    41    34    36    1
    42    37    38    1
    43    37    39    1
    44    40    47   ar
    45    41    45   ar
    46    41    48   ar
    47    41    42    1
    48    43    47    1
    49    43    49    1
    50    43    44    1
    51    45    46    1
    52    47    48   ar
    53    49    51    1
    54    49    52    1
    55    49    50    1
    56    51    58   ar
    57    51    60   ar
    58    52    53    1
    59    52    54    1
    60    52    55    1
    61    56    62   ar
    62    56    64   ar
    63    56    57    1
    64    58    64   ar
    65    58    59    1
    66    60    62   ar
    67    60    61    1
    68    62    63    1
    69    64    65    1
@<TRIPOS>SUBSTRUCTURE
     1 RES1        1 GROUP             0 ****  ****    0  
@<TRIPOS>MOLECULE
LIGAND_00348
    65    69     1     0     0
SMALL
USER_CHARGES
****
Generated from the CSD

@<TRIPOS>ATOM
     1 C1      -0.2658  -3.7380 -12.4036   C.ar      1 RES1   0.0000
     2 H2       0.7372  -4.1021 -12.5980   H         1 RES1   0.0000
     3 C3      -2.8090  -2.7698 -11.9276   C.ar      1 RES1   0.0000
     4 H4      -3.8044  -2.3793 -11.7438   H         1 RES1   0.0000
     5 C5      -1.3598  -4.4978 -12.8072   C.ar      1 RES1   0.0000
     6 C6      -0.4304  -2.5225 -11.7633   C.ar      1 RES1   0.0000
     7 H7       0.4285  -1.9419 -11.4438   H         1 RES1   0.0000
     8 C8      -1.7009  -2.0694 -11.5445   C.ar      1 RES1   0.0000
     9 C9      -2.6308  -3.9895 -12.5544   C.ar      1 RES1   0.0000
    10 H10     -3.5047  -4.5591 -12.8495   H         1 RES1   0.0000
    11 C11     -1.1972  -5.8144 -13.5051   C.2       1 RES1   0.0000
    12 F12     -1.8703  -0.8722 -10.9202   F         1 RES1   0.0000
    13 N13     -1.2185  -7.9441 -14.1431   N.am      1 RES1   0.0000
    14 C14     -1.4588  -9.4206 -14.2801   C.3       1 RES1   0.0000
    15 H15     -1.0235  -9.7476 -15.2232   H         1 RES1   0.0000
    16 C16     -0.2517  -7.6943 -16.4627   C.3       1 RES1   0.0000
    17 H17      0.4743  -7.0503 -16.9547   H         1 RES1   0.0000
    18 H18      0.1705  -8.6952 -16.4012   H         1 RES1   0.0000
    19 H19     -1.1427  -7.7394 -17.0855   H         1 RES1   0.0000
    20 C20     -0.5870  -5.9122 -14.7311   C.2       1 RES1   0.0000
    21 C21      0.0604  -4.8376 -15.5265   C.ar      1 RES1   0.0000
    22 O22     -2.1842  -7.5495 -12.1420   O.2       1 RES1   0.0000
    23 C23     -1.5989  -7.1311 -13.1323   C.2       1 RES1   0.0000
    24 N24     -0.5777  -7.1848 -15.1302   N.pl3     1 RES1   0.0000
    25 C25     -0.9816 -11.6820 -13.2875   C.3       1 RES1   0.0000
    26 H26     -0.5180 -12.1930 -12.4449   H         1 RES1   0.0000
    27 H27     -0.5287 -12.0278 -14.2156   H         1 RES1   0.0000
    28 C28     -3.1547 -11.2688 -14.4095   C.3       1 RES1   0.0000
    29 H29     -2.7664 -11.6146 -15.3664   H         1 RES1   0.0000
    30 H30     -4.2200 -11.4868 -14.3499   H         1 RES1   0.0000
    31 C31     -2.9457  -9.7660 -14.2996   C.3       1 RES1   0.0000
    32 H32     -3.4135  -9.2780 -15.1534   H         1 RES1   0.0000
    33 H33     -3.4065  -9.4086 -13.3799   H         1 RES1   0.0000
    34 C34     -0.7691 -10.1845 -13.1491   C.3       1 RES1   0.0000
    35 H35     -1.1791  -9.8543 -12.1958   H         1 RES1   0.0000
    36 H36      0.2989  -9.9732 -13.1775   H         1 RES1   0.0000
    37 N37     -2.4461 -11.9825 -13.3067   N.4       1 RES1   1.0000
    38 H38     -2.8499 -11.6968 -12.4203   H         1 RES1   0.0000
    39 H39     -2.5730 -12.9819 -13.4298   H         1 RES1   0.0000
    40 N40      1.1204  -4.2311 -14.9697   N.ar      1 RES1   0.0000
    41 C41      0.2729  -3.4391 -17.4122   C.ar      1 RES1   0.0000
    42 H42     -0.0691  -3.1305 -18.3946   H         1 RES1   0.0000
    43 N43      2.7453  -2.6186 -15.1035   N.pl3     1 RES1   0.0000
    44 H44      3.0124  -2.8942 -14.1585   H         1 RES1   0.0000
    45 C45     -0.4048  -4.4607 -16.7778   C.ar      1 RES1   0.0000
    46 H46     -1.2618  -4.9437 -17.2355   H         1 RES1   0.0000
    47 C47      1.6980  -3.2405 -15.6683   C.ar      1 RES1   0.0000
    48 N48      1.3280  -2.8070 -16.8822   N.ar      1 RES1   0.0000
    49 C49      3.4878  -1.5272 -15.7337   C.3       1 RES1   0.0000
    50 H50      3.4039  -1.6288 -16.8268   H         1 RES1   0.0000
    51 C51      4.9570  -1.5362 -15.3596   C.ar      1 RES1   0.0000
    52 C52      2.8288  -0.2179 -15.3159   C.3       1 RES1   0.0000
    53 H53      3.3236   0.6303 -15.7844   H         1 RES1   0.0000
    54 H54      1.7805  -0.2016 -15.6067   H         1 RES1   0.0000
    55 H55      2.8829  -0.0877 -14.2371   H         1 RES1   0.0000
    56 C56      7.6529  -1.5582 -14.6581   C.ar      1 RES1   0.0000
    57 H57      8.7029  -1.5674 -14.3853   H         1 RES1   0.0000
    58 C58      5.3602  -1.9627 -14.1024   C.ar      1 RES1   0.0000
    59 H59      4.6164  -2.2911 -13.3839   H         1 RES1   0.0000
    60 C60      5.9279  -1.1181 -16.2593   C.ar      1 RES1   0.0000
    61 H61      5.6365  -0.7786 -17.2477   H         1 RES1   0.0000
    62 C62      7.2675  -1.1300 -15.9094   C.ar      1 RES1   0.0000
    63 H63      8.0154  -0.8011 -16.6232   H         1 RES1   0.0000
    64 C64      6.7002  -1.9746 -13.7544   C.ar      1 RES1   0.0000
    65 H65      7.0002  -2.3126 -12.7681   H         1 RES1   0.0000
@<TRIPOS>BOND
     1     1     5   ar
     2     1     6   ar
     3     1     2    1
     4     3     8   ar
     5     3     9   ar
     6     3     4    1
     7     5     9   ar
     8     5    11    1
     9     6     8   ar
    10     6     7    1
    11     8    12    1
    12     9    10    1
    13    11    20    2
    14    11    23    1
    15    13    14    1
    16    13    23   am
    17    13    24    1
    18    14    31    1
    19    14    34    1
    20    14    15    1
    21    16    24    1
    22    16    17    1
    23    16    18    1
    24    16    19    1
    25    20    21    1
    26    20    24    1
    27    21    40   ar
    28    21    45   ar
    29    22    23    2
    30    25    34    1
    31    25    37    1
    32    25    26    1
    33    25    27    1
    34    28    31    1
    35    28    37    1
    36    28    29    1
    37    28    30    1
    38    31    32    1
    39    31    33    1
    40    34    35    1
    41    34    36    1
    42    37    38    1
    43    37    39    1
    44    40    47   ar
    45    41    45   ar
    46    41    48   ar
    47    41    42    1
    48    43    47    1
    49    43    49    1
    50    43    44    1
    51    45    46    1
    52    47    48   ar
    53    49    51    1
    54    49    52    1
    55    49    50    1
    56    51    58   ar
    57    51    60   ar
    58    52    53    1
    59    52    54    1
    60    52    55    1
    61    56    62   ar
    62    56    64   ar
    63    56    57    1
    64    58    64   ar
    65    58    59    1
    66    60    62   ar
    67    60    61    1
    68    62    63    1
    69    64    65    1
@<TRIPOS>SUBSTRUCTURE
     1 RES1        1 GROUP             0 ****  ****    0  
@<TRIPOS>MOLECULE
LIGAND_00349
    65    69     1     0     0
SMALL
USER_CHARGES
****
Generated from the CSD

@<TRIPOS>ATOM
     1 C1      -0.2778  -3.7330 -12.4066   C.ar      1 RES1   0.0000
     2 H2       0.7266  -4.0952 -12.5973   H         1 RES1   0.0000
     3 C3      -2.8246  -2.7697 -11.9402   C.ar      1 RES1   0.0000
     4 H4      -3.8215  -2.3811 -11.7602   H         1 RES1   0.0000
     5 C5      -1.3688  -4.4960 -12.8121   C.ar      1 RES1   0.0000
     6 C6      -0.4472  -2.5168 -11.7691   C.ar      1 RES1   0.0000
     7 H7       0.4095  -1.9336 -11.4480   H         1 RES1   0.0000
     8 C8      -1.7193  -2.0661 -11.5550   C.ar      1 RES1   0.0000
     9 C9      -2.6418  -3.9901 -12.5642   C.ar      1 RES1   0.0000
    10 H10     -3.5134  -4.5623 -12.8609   H         1 RES1   0.0000
    11 C11     -1.2011  -5.8136 -13.5072   C.2       1 RES1   0.0000
    12 F12     -1.8933  -0.8681 -10.9334   F         1 RES1   0.0000
    13 N13     -1.2157  -7.9444 -14.1413   N.am      1 RES1   0.0000
    14 C14     -1.4522  -9.4217 -14.2763   C.3       1 RES1   0.0000
    15 H15     -1.0128  -9.7496 -15.2172   H         1 RES1   0.0000
    16 C16     -0.2424  -7.6967 -16.4584   C.3       1 RES1   0.0000
    17 H17      0.4476  -7.0272 -16.9679   H         1 RES1   0.0000
    18 H18      0.2249  -8.6769 -16.3905   H         1 RES1   0.0000
    19 H19     -1.1384  -7.7894 -17.0685   H         1 RES1   0.0000
    20 C20     -0.5870  -5.9122 -14.7311   C.2       1 RES1   0.0000
    21 C21      0.0604  -4.8376 -15.5265   C.ar      1 RES1   0.0000
    22 O22     -2.1884  -7.5484 -12.1439   O.2       1 RES1   0.0000
    23 C23     -1.6010  -7.1305 -13.1332   C.2       1 RES1   0.0000
    24 N24     -0.5736  -7.1855 -15.1279   N.pl3     1 RES1   0.0000
    25 C25     -0.9736 -11.6801 -13.2776   C.3       1 RES1   0.0000
    26 H26     -0.5120 -12.1885 -12.4324   H         1 RES1   0.0000
    27 H27     -0.5167 -12.0267 -14.2033   H         1 RES1   0.0000
    28 C28     -3.1436 -11.2739 -14.4083   C.3       1 RES1   0.0000
    29 H29     -2.7511 -11.6207 -15.3631   H         1 RES1   0.0000
    30 H30     -4.2086 -11.4941 -14.3521   H         1 RES1   0.0000
    31 C31     -2.9383  -9.7704 -14.3006   C.3       1 RES1   0.0000
    32 H32     -3.4040  -9.2851 -15.1570   H         1 RES1   0.0000
    33 H33     -3.4032  -9.4123 -13.3832   H         1 RES1   0.0000
    34 C34     -0.7650 -10.1819 -13.1413   C.3       1 RES1   0.0000
    35 H35     -1.1792  -9.8507 -12.1902   H         1 RES1   0.0000
    36 H36      0.3026  -9.9684 -13.1663   H         1 RES1   0.0000
    37 N37     -2.4375 -11.9839 -13.3015   N.4       1 RES1   1.0000
    38 H38     -2.8451 -11.6974 -12.4172   H         1 RES1   0.0000
    39 H39     -2.5617 -12.9839 -13.4232   H         1 RES1   0.0000
    40 N40      1.1204  -4.2311 -14.9697   N.ar      1 RES1   0.0000
    41 C41      0.2729  -3.4391 -17.4122   C.ar      1 RES1   0.0000
    42 H42     -0.0691  -3.1305 -18.3946   H         1 RES1   0.0000
    43 N43      2.7453  -2.6186 -15.1035   N.pl3     1 RES1   0.0000
    44 H44      3.2221  -1.8975 -15.6448   H         1 RES1   0.0000
    45 C45     -0.4048  -4.4607 -16.7778   C.ar      1 RES1   0.0000
    46 H46     -1.2618  -4.9437 -17.2355   H         1 RES1   0.0000
    47 C47      1.6980  -3.2405 -15.6683   C.ar      1 RES1   0.0000
    48 N48      1.3280  -2.8070 -16.8822   N.ar      1 RES1   0.0000
    49 C49      3.2845  -2.9538 -13.7858   C.3       1 RES1   0.0000
    50 H50      2.4782  -3.3893 -13.1754   H         1 RES1   0.0000
    51 C51      3.8368  -1.7416 -13.0619   C.ar      1 RES1   0.0000
    52 C52      4.3671  -4.0083 -13.9838   C.3       1 RES1   0.0000
    53 H53      4.7824  -4.3198 -13.0276   H         1 RES1   0.0000
    54 H54      3.9646  -4.8884 -14.4811   H         1 RES1   0.0000
    55 H55      5.1784  -3.6162 -14.5935   H         1 RES1   0.0000
    56 C56      4.8560   0.4918 -11.7453   C.ar      1 RES1   0.0000
    57 H57      5.2523   1.3620 -11.2325   H         1 RES1   0.0000
    58 C58      4.4355  -0.7107 -13.7716   C.ar      1 RES1   0.0000
    59 H59      4.5079  -0.7756 -14.8523   H         1 RES1   0.0000
    60 C60      3.7595  -1.6358 -11.6799   C.ar      1 RES1   0.0000
    61 H61      3.2973  -2.4302 -11.1034   H         1 RES1   0.0000
    62 C62      4.2662  -0.5249 -11.0269   C.ar      1 RES1   0.0000
    63 H63      4.1981  -0.4555  -9.9464   H         1 RES1   0.0000
    64 C64      4.9409   0.3997 -13.1171   C.ar      1 RES1   0.0000
    65 H65      5.4047   1.1986 -13.6860   H         1 RES1   0.0000
@<TRIPOS>BOND
     1     1     5   ar
     2     1     6   ar
     3     1     2    1
     4     3     8   ar
     5     3     9   ar
     6     3     4    1
     7     5     9   ar
     8     5    11    1
     9     6     8   ar
    10     6     7    1
    11     8    12    1
    12     9    10    1
    13    11    20    2
    14    11    23    1
    15    13    14    1
    16    13    23   am
    17    13    24    1
    18    14    31    1
    19    14    34    1
    20    14    15    1
    21    16    24    1
    22    16    17    1
    23    16    18    1
    24    16    19    1
    25    20    21    1
    26    20    24    1
    27    21    40   ar
    28    21    45   ar
    29    22    23    2
    30    25    34    1
    31    25    37    1
    32    25    26    1
    33    25    27    1
    34    28    31    1
    35    28    37    1
    36    28    29    1
    37    28    30    1
    38    31    32    1
    39    31    33    1
    40    34    35    1
    41    34    36    1
    42    37    38    1
    43    37    39    1
    44    40    47   ar
    45    41    45   ar
    46    41    48   ar
    47    41    42    1
    48    43    47    1
    49    43    49    1
    50    43    44    1
    51    45    46    1
    52    47    48   ar
    53    49    51    1
    54    49    52    1
    55    49    50    1
    56    51    58   ar
    57    51    60   ar
    58    52    53    1
    59    52    54    1
    60    52    55    1
    61    56    62   ar
    62    56    64   ar
    63    56    57    1
    64    58    64   ar
    65    58    59    1
    66    60    62   ar
    67    60    61    1
    68    62    63    1
    69    64    65    1
@<TRIPOS>SUBSTRUCTURE
     1 RES1        1 GROUP             0 ****  ****    0  
@<TRIPOS>MOLECULE
LIGAND_00350
    65    69     1     0     0
SMALL
USER_CHARGES
****
Generated from the CSD

@<TRIPOS>ATOM
     1 C1      -0.5578  -4.3301 -11.5225   C.ar      1 RES1   0.0000
     2 H2       0.0341  -5.1338 -11.0981   H         1 RES1   0.0000
     3 C3      -2.0293  -2.2541 -12.5979   C.ar      1 RES1   0.0000
     4 H4      -2.5990  -1.4315 -13.0175   H         1 RES1   0.0000
     5 C5      -1.2152  -4.5298 -12.7327   C.ar      1 RES1   0.0000
     6 C6      -0.6384  -3.1235 -10.8500   C.ar      1 RES1   0.0000
     7 H7      -0.1303  -2.9805  -9.9022   H         1 RES1   0.0000
     8 C8      -1.3719  -2.1151 -11.4089   C.ar      1 RES1   0.0000
     9 C9      -1.9517  -3.4693 -13.2531   C.ar      1 RES1   0.0000
    10 H10     -2.4817  -3.5935 -14.1906   H         1 RES1   0.0000
    11 C11     -1.1341  -5.8298 -13.4746   C.2       1 RES1   0.0000
    12 F12     -1.4511  -0.9239 -10.7557   F         1 RES1   0.0000
    13 N13     -1.2632  -7.9374 -14.1705   N.am      1 RES1   0.0000
    14 C14     -1.5633  -9.3998 -14.3372   C.3       1 RES1   0.0000
    15 H15     -1.1853  -9.7137 -15.3090   H         1 RES1   0.0000
    16 C16     -0.3997  -7.6523 -16.5265   C.3       1 RES1   0.0000
    17 H17      0.3157  -7.0127 -17.0391   H         1 RES1   0.0000
    18 H18     -0.0003  -8.6643 -16.5134   H         1 RES1   0.0000
    19 H19     -1.3227  -7.6592 -17.1025   H         1 RES1   0.0000
    20 C20     -0.5870  -5.9122 -14.7311   C.2       1 RES1   0.0000
    21 C21      0.0604  -4.8376 -15.5265   C.ar      1 RES1   0.0000
    22 O22     -2.1174  -7.5693 -12.1144   O.2       1 RES1   0.0000
    23 C23     -1.5652  -7.1423 -13.1199   C.2       1 RES1   0.0000
    24 N24     -0.6431  -7.1718 -15.1659   N.pl3     1 RES1   0.0000
    25 C25     -1.1224 -11.7052 -13.4328   C.3       1 RES1   0.0000
    26 H26     -0.6384 -12.2570 -12.6283   H         1 RES1   0.0000
    27 H27     -0.7268 -12.0388 -14.3910   H         1 RES1   0.0000
    28 C28     -3.3296 -11.1829 -14.4364   C.3       1 RES1   0.0000
    29 H29     -2.9999 -11.5134 -15.4203   H         1 RES1   0.0000
    30 H30     -4.3981 -11.3651 -14.3315   H         1 RES1   0.0000
    31 C31     -3.0611  -9.6922 -14.2946   C.3       1 RES1   0.0000
    32 H32     -3.5506  -9.1629 -15.1107   H         1 RES1   0.0000
    33 H33     -3.4645  -9.3466 -13.3440   H         1 RES1   0.0000
    34 C34     -0.8492 -10.2208 -13.2628   C.3       1 RES1   0.0000
    35 H35     -1.2014  -9.9050 -12.2819   H         1 RES1   0.0000
    36 H36      0.2232 -10.0464 -13.3368   H         1 RES1   0.0000
    37 N37     -2.5962 -11.9535 -13.3896   N.4       1 RES1   1.0000
    38 H38     -2.9469 -11.6804 -12.4771   H         1 RES1   0.0000
    39 H39     -2.7650 -12.9438 -13.5345   H         1 RES1   0.0000
    40 N40     -0.7059  -3.7852 -15.8536   N.ar      1 RES1   0.0000
    41 C41      1.8690  -3.8559 -16.6763   C.ar      1 RES1   0.0000
    42 H42      2.9047  -3.8883 -16.9980   H         1 RES1   0.0000
    43 N43     -0.9099  -1.7764 -16.9406   N.pl3     1 RES1   0.0000
    44 H44     -1.8927  -1.7972 -16.6687   H         1 RES1   0.0000
    45 C45      1.3859  -4.9110 -15.9288   C.ar      1 RES1   0.0000
    46 H46      2.0127  -5.7582 -15.6708   H         1 RES1   0.0000
    47 C47     -0.1387  -2.8196 -16.5946   C.ar      1 RES1   0.0000
    48 N48      1.1302  -2.7954 -17.0275   N.ar      1 RES1   0.0000
    49 C49     -0.4442  -0.6416 -17.7374   C.3       1 RES1   0.0000
    50 H50      0.6405  -0.5269 -17.5872   H         1 RES1   0.0000
    51 C51     -1.1250   0.6559 -17.3482   C.ar      1 RES1   0.0000
    52 C52     -0.6992  -0.9704 -19.2037   C.3       1 RES1   0.0000
    53 H53     -0.3403  -0.1698 -19.8471   H         1 RES1   0.0000
    54 H54     -0.1899  -1.8885 -19.4892   H         1 RES1   0.0000
    55 H55     -1.7632  -1.1019 -19.3885   H         1 RES1   0.0000
    56 C56     -2.3891   3.0322 -16.6299   C.ar      1 RES1   0.0000
    57 H57     -2.8811   3.9576 -16.3494   H         1 RES1   0.0000
    58 C58     -2.4432   0.6563 -16.9153   C.ar      1 RES1   0.0000
    59 H59     -2.9882  -0.2800 -16.8563   H         1 RES1   0.0000
    60 C60     -0.4510   1.8674 -17.4177   C.ar      1 RES1   0.0000
    61 H61      0.5798   1.8923 -17.7550   H         1 RES1   0.0000
    62 C62     -1.0805   3.0477 -17.0599   C.ar      1 RES1   0.0000
    63 H63     -0.5410   3.9872 -17.1186   H         1 RES1   0.0000
    64 C64     -3.0708   1.8374 -16.5573   C.ar      1 RES1   0.0000
    65 H65     -4.1015   1.8214 -16.2189   H         1 RES1   0.0000
@<TRIPOS>BOND
     1     1     5   ar
     2     1     6   ar
     3     1     2    1
     4     3     8   ar
     5     3     9   ar
     6     3     4    1
     7     5     9   ar
     8     5    11    1
     9     6     8   ar
    10     6     7    1
    11     8    12    1
    12     9    10    1
    13    11    20    2
    14    11    23    1
    15    13    14    1
    16    13    23   am
    17    13    24    1
    18    14    31    1
    19    14    34    1
    20    14    15    1
    21    16    24    1
    22    16    17    1
    23    16    18    1
    24    16    19    1
    25    20    21    1
    26    20    24    1
    27    21    40   ar
    28    21    45   ar
    29    22    23    2
    30    25    34    1
    31    25    37    1
    32    25    26    1
    33    25    27    1
    34    28    31    1
    35    28    37    1
    36    28    29    1
    37    28    30    1
    38    31    32    1
    39    31    33    1
    40    34    35    1
    41    34    36    1
    42    37    38    1
    43    37    39    1
    44    40    47   ar
    45    41    45   ar
    46    41    48   ar
    47    41    42    1
    48    43    47    1
    49    43    49    1
    50    43    44    1
    51    45    46    1
    52    47    48   ar
    53    49    51    1
    54    49    52    1
    55    49    50    1
    56    51    58   ar
    57    51    60   ar
    58    52    53    1
    59    52    54    1
    60    52    55    1
    61    56    62   ar
    62    56    64   ar
    63    56    57    1
    64    58    64   ar
    65    58    59    1
    66    60    62   ar
    67    60    61    1
    68    62    63    1
    69    64    65    1
@<TRIPOS>SUBSTRUCTURE
     1 RES1        1 GROUP             0 ****  ****    0  
@<TRIPOS>MOLECULE
LIGAND_00351
    65    69     1     0     0
SMALL
USER_CHARGES
****
Generated from the CSD

@<TRIPOS>ATOM
     1 C1      -3.0248  -3.8117 -15.3691   C.ar      1 RES1   0.0000
     2 H2      -3.8579  -4.2218 -14.8086   H         1 RES1   0.0000
     3 C3      -0.9094  -2.7260 -16.7756   C.ar      1 RES1   0.0000
     4 H4      -0.0813  -2.2894 -17.3241   H         1 RES1   0.0000
     5 C5      -1.8085  -4.4880 -15.3803   C.ar      1 RES1   0.0000
     6 C6      -3.1929  -2.6215 -16.0545   C.ar      1 RES1   0.0000
     7 H7      -4.1477  -2.1065 -16.0477   H         1 RES1   0.0000
     8 C8      -2.1271  -2.1087 -16.7387   C.ar      1 RES1   0.0000
     9 C9      -0.7584  -3.9218 -16.0977   C.ar      1 RES1   0.0000
    10 H10      0.2005  -4.4262 -16.1329   H         1 RES1   0.0000
    11 C11     -1.6101  -5.7761 -14.6397   C.2       1 RES1   0.0000
    12 F12     -2.2837  -0.9357 -17.4105   F         1 RES1   0.0000
    13 N13     -1.2406  -7.9410 -14.1570   N.am      1 RES1   0.0000
    14 C14     -1.5106  -9.4109 -14.3092   C.3       1 RES1   0.0000
    15 H15     -1.2169  -9.7059 -15.3155   H         1 RES1   0.0000
    16 C16     -0.8997  -7.6987 -11.7768   C.3       1 RES1   0.0000
    17 H17     -1.4821  -8.4148 -11.2007   H         1 RES1   0.0000
    18 H18      0.0445  -8.1682 -12.0450   H         1 RES1   0.0000
    19 H19     -0.6847  -6.8442 -11.1386   H         1 RES1   0.0000
    20 C20     -1.7513  -5.9390 -13.3057   C.2       1 RES1   0.0000
    21 C21     -2.0254  -4.9138 -12.2663   C.ar      1 RES1   0.0000
    22 O22     -1.1751  -7.3947 -16.3880   O.2       1 RES1   0.0000
    23 C23     -1.3018  -7.0544 -15.2191   C.2       1 RES1   0.0000
    24 N24     -1.6302  -7.2794 -12.9734   N.3       1 RES1   0.0000
    25 C25     -0.9161 -11.7077 -13.4736   C.3       1 RES1   0.0000
    26 H26     -0.3416 -12.2498 -12.7239   H         1 RES1   0.0000
    27 H27     -0.6031 -12.0220 -14.4681   H         1 RES1   0.0000
    28 C28     -3.2233 -11.2474 -14.2590   C.3       1 RES1   0.0000
    29 H29     -2.9784 -11.5605 -15.2729   H         1 RES1   0.0000
    30 H30     -4.2711 -11.4636 -14.0555   H         1 RES1   0.0000
    31 C31     -2.9880  -9.7502 -14.1283   C.3       1 RES1   0.0000
    32 H32     -3.5685  -9.2306 -14.8892   H         1 RES1   0.0000
    33 H33     -3.3100  -9.4240 -13.1405   H         1 RES1   0.0000
    34 C34     -0.6733 -10.2168 -13.3153   C.3       1 RES1   0.0000
    35 H35     -0.9405  -9.9191 -12.3024   H         1 RES1   0.0000
    36 H36      0.3815 -10.0085 -13.4885   H         1 RES1   0.0000
    37 N37     -2.3710 -12.0022 -13.2939   N.4       1 RES1   1.0000
    38 H38     -2.6419 -11.7466 -12.3497   H         1 RES1   0.0000
    39 H39     -2.5226 -12.9962 -13.4321   H         1 RES1   0.0000
    40 N40     -1.1245  -3.9267 -12.1410   N.ar      1 RES1   0.0000
    41 C41     -3.2824  -3.9653 -10.5120   C.ar      1 RES1   0.0000
    42 H42     -4.1537  -3.9839  -9.8657   H         1 RES1   0.0000
    43 N43     -0.4373  -2.0325 -11.0465   N.pl3     1 RES1   0.0000
    44 H44      0.4036  -2.0766 -11.6222   H         1 RES1   0.0000
    45 C45     -3.1458  -4.9686 -11.4502   C.ar      1 RES1   0.0000
    46 H46     -3.8787  -5.7633 -11.5427   H         1 RES1   0.0000
    47 C47     -1.3484  -3.0085 -11.1872   C.ar      1 RES1   0.0000
    48 N48     -2.3988  -2.9712 -10.3544   N.ar      1 RES1   0.0000
    49 C49     -0.5451  -0.9444 -10.0749   C.3       1 RES1   0.0000
    50 H50     -1.0961  -1.3109  -9.1950   H         1 RES1   0.0000
    51 C51     -1.2760   0.2600 -10.6349   C.ar      1 RES1   0.0000
    52 C52      0.8674  -0.5698  -9.6417   C.3       1 RES1   0.0000
    53 H53      0.8451   0.2174  -8.8910   H         1 RES1   0.0000
    54 H54      1.3831  -1.4284  -9.2170   H         1 RES1   0.0000
    55 H55      1.4473  -0.2121 -10.4900   H         1 RES1   0.0000
    56 C56     -2.6063   2.4819 -11.6616   C.ar      1 RES1   0.0000
    57 H57     -3.1243   3.3470 -12.0621   H         1 RES1   0.0000
    58 C58     -0.6433   1.4922 -10.7150   C.ar      1 RES1   0.0000
    59 H59      0.3817   1.5915 -10.3731   H         1 RES1   0.0000
    60 C60     -2.5884   0.1602 -11.0760   C.ar      1 RES1   0.0000
    61 H61     -3.1044  -0.7926 -11.0216   H         1 RES1   0.0000
    62 C62     -3.2482   1.2654 -11.5864   C.ar      1 RES1   0.0000
    63 H63     -4.2738   1.1723 -11.9280   H         1 RES1   0.0000
    64 C64     -1.3044   2.5960 -11.2263   C.ar      1 RES1   0.0000
    65 H65     -0.7957   3.5526 -11.2841   H         1 RES1   0.0000
@<TRIPOS>BOND
     1     1     5   ar
     2     1     6   ar
     3     1     2    1
     4     3     8   ar
     5     3     9   ar
     6     3     4    1
     7     5     9   ar
     8     5    11    1
     9     6     8   ar
    10     6     7    1
    11     8    12    1
    12     9    10    1
    13    11    20    2
    14    11    23    1
    15    13    14    1
    16    13    23   am
    17    13    24    1
    18    14    31    1
    19    14    34    1
    20    14    15    1
    21    16    24    1
    22    16    17    1
    23    16    18    1
    24    16    19    1
    25    20    21    1
    26    20    24    1
    27    21    40   ar
    28    21    45   ar
    29    22    23    2
    30    25    34    1
    31    25    37    1
    32    25    26    1
    33    25    27    1
    34    28    31    1
    35    28    37    1
    36    28    29    1
    37    28    30    1
    38    31    32    1
    39    31    33    1
    40    34    35    1
    41    34    36    1
    42    37    38    1
    43    37    39    1
    44    40    47   ar
    45    41    45   ar
    46    41    48   ar
    47    41    42    1
    48    43    47    1
    49    43    49    1
    50    43    44    1
    51    45    46    1
    52    47    48   ar
    53    49    51    1
    54    49    52    1
    55    49    50    1
    56    51    58   ar
    57    51    60   ar
    58    52    53    1
    59    52    54    1
    60    52    55    1
    61    56    62   ar
    62    56    64   ar
    63    56    57    1
    64    58    64   ar
    65    58    59    1
    66    60    62   ar
    67    60    61    1
    68    62    63    1
    69    64    65    1
@<TRIPOS>SUBSTRUCTURE
     1 RES1        1 GROUP             0 ****  ****    0  
@<TRIPOS>MOLECULE
LIGAND_00352
    65    69     1     0     0
SMALL
USER_CHARGES
****
Generated from the CSD

@<TRIPOS>ATOM
     1 C1      -2.8355  -4.3673 -16.3562   C.ar      1 RES1   0.0000
     2 H2      -3.4687  -5.2168 -16.5882   H         1 RES1   0.0000
     3 C3      -1.2607  -2.1771 -15.7604   C.ar      1 RES1   0.0000
     4 H4      -0.6513  -1.3104 -15.5268   H         1 RES1   0.0000
     5 C5      -1.8481  -4.4951 -15.3838   C.ar      1 RES1   0.0000
     6 C6      -3.0311  -3.1753 -17.0311   C.ar      1 RES1   0.0000
     7 H7      -3.7971  -3.0882 -17.7945   H         1 RES1   0.0000
     8 C8      -2.2379  -2.1094 -16.7121   C.ar      1 RES1   0.0000
     9 C9      -1.0664  -3.3780 -15.1028   C.ar      1 RES1   0.0000
    10 H10     -0.2838  -3.4453 -14.3558   H         1 RES1   0.0000
    11 C11     -1.6269  -5.7786 -14.6417   C.2       1 RES1   0.0000
    12 F12     -2.4283  -0.9324 -17.3680   F         1 RES1   0.0000
    13 N13     -1.2275  -7.9377 -14.1568   N.am      1 RES1   0.0000
    14 C14     -1.4824  -9.4110 -14.3017   C.3       1 RES1   0.0000
    15 H15     -1.1968  -9.7057 -15.3104   H         1 RES1   0.0000
    16 C16     -0.8628  -7.6843 -11.7813   C.3       1 RES1   0.0000
    17 H17     -1.4306  -8.4051 -11.1965   H         1 RES1   0.0000
    18 H18      0.0836  -8.1439 -12.0587   H         1 RES1   0.0000
    19 H19     -0.6502  -6.8255 -11.1481   H         1 RES1   0.0000
    20 C20     -1.7513  -5.9390 -13.3057   C.2       1 RES1   0.0000
    21 C21     -2.0254  -4.9138 -12.2663   C.ar      1 RES1   0.0000
    22 O22     -1.1931  -7.3975 -16.3900   O.2       1 RES1   0.0000
    23 C23     -1.3106  -7.0551 -15.2207   C.2       1 RES1   0.0000
    24 N24     -1.6113  -7.2770 -12.9708   N.3       1 RES1   0.0000
    25 C25     -0.8524 -11.6984 -13.4662   C.3       1 RES1   0.0000
    26 H26     -0.2634 -12.2317 -12.7215   H         1 RES1   0.0000
    27 H27     -0.5471 -12.0122 -14.4633   H         1 RES1   0.0000
    28 C28     -3.1735 -11.2667 -14.2268   C.3       1 RES1   0.0000
    29 H29     -2.9364 -11.5800 -15.2424   H         1 RES1   0.0000
    30 H30     -4.2163 -11.4941 -14.0108   H         1 RES1   0.0000
    31 C31     -2.9537  -9.7665 -14.1030   C.3       1 RES1   0.0000
    32 H32     -3.5486  -9.2558 -14.8589   H         1 RES1   0.0000
    33 H33     -3.2682  -9.4409 -13.1126   H         1 RES1   0.0000
    34 C34     -0.6248 -10.2043 -13.3150   C.3       1 RES1   0.0000
    35 H35     -0.8839  -9.9066 -12.3000   H         1 RES1   0.0000
    36 H36      0.4255  -9.9846 -13.5008   H         1 RES1   0.0000
    37 N37     -2.3018 -12.0088 -13.2691   N.4       1 RES1   1.0000
    38 H38     -2.5648 -11.7535 -12.3227   H         1 RES1   0.0000
    39 H39     -2.4436 -13.0049 -13.4027   H         1 RES1   0.0000
    40 N40     -1.1245  -3.9267 -12.1410   N.ar      1 RES1   0.0000
    41 C41     -3.2824  -3.9653 -10.5120   C.ar      1 RES1   0.0000
    42 H42     -4.1537  -3.9839  -9.8657   H         1 RES1   0.0000
    43 N43     -0.4373  -2.0325 -11.0465   N.pl3     1 RES1   0.0000
    44 H44     -0.6201  -1.3034 -10.3572   H         1 RES1   0.0000
    45 C45     -3.1458  -4.9686 -11.4502   C.ar      1 RES1   0.0000
    46 H46     -3.8787  -5.7633 -11.5427   H         1 RES1   0.0000
    47 C47     -1.3484  -3.0085 -11.1872   C.ar      1 RES1   0.0000
    48 N48     -2.3988  -2.9712 -10.3544   N.ar      1 RES1   0.0000
    49 C49      0.7703  -1.9146 -11.8634   C.3       1 RES1   0.0000
    50 H50      0.5510  -2.2938 -12.8736   H         1 RES1   0.0000
    51 C51      1.9328  -2.7036 -11.2936   C.ar      1 RES1   0.0000
    52 C52      1.1167  -0.4338 -11.9655   C.3       1 RES1   0.0000
    53 H53      1.9933  -0.2846 -12.5924   H         1 RES1   0.0000
    54 H54      0.2915   0.1284 -12.3976   H         1 RES1   0.0000
    55 H55      1.3298  -0.0204 -10.9819   H         1 RES1   0.0000
    56 C56      4.0779  -4.1484 -10.2584   C.ar      1 RES1   0.0000
    57 H57      4.9134  -4.7106  -9.8546   H         1 RES1   0.0000
    58 C58      3.1621  -2.7087 -11.9370   C.ar      1 RES1   0.0000
    59 H59      3.2891  -2.1436 -12.8544   H         1 RES1   0.0000
    60 C60      1.7955  -3.4371 -10.1232   C.ar      1 RES1   0.0000
    61 H61      0.8433  -3.4496  -9.6034   H         1 RES1   0.0000
    62 C62      2.8627  -4.1545  -9.6096   C.ar      1 RES1   0.0000
    63 H63      2.7409  -4.7227  -8.6935   H         1 RES1   0.0000
    64 C64      4.2283  -3.4260 -11.4216   C.ar      1 RES1   0.0000
    65 H65      5.1840  -3.4189 -11.9351   H         1 RES1   0.0000
@<TRIPOS>BOND
     1     1     5   ar
     2     1     6   ar
     3     1     2    1
     4     3     8   ar
     5     3     9   ar
     6     3     4    1
     7     5     9   ar
     8     5    11    1
     9     6     8   ar
    10     6     7    1
    11     8    12    1
    12     9    10    1
    13    11    20    2
    14    11    23    1
    15    13    14    1
    16    13    23   am
    17    13    24    1
    18    14    31    1
    19    14    34    1
    20    14    15    1
    21    16    24    1
    22    16    17    1
    23    16    18    1
    24    16    19    1
    25    20    21    1
    26    20    24    1
    27    21    40   ar
    28    21    45   ar
    29    22    23    2
    30    25    34    1
    31    25    37    1
    32    25    26    1
    33    25    27    1
    34    28    31    1
    35    28    37    1
    36    28    29    1
    37    28    30    1
    38    31    32    1
    39    31    33    1
    40    34    35    1
    41    34    36    1
    42    37    38    1
    43    37    39    1
    44    40    47   ar
    45    41    45   ar
    46    41    48   ar
    47    41    42    1
    48    43    47    1
    49    43    49    1
    50    43    44    1
    51    45    46    1
    52    47    48   ar
    53    49    51    1
    54    49    52    1
    55    49    50    1
    56    51    58   ar
    57    51    60   ar
    58    52    53    1
    59    52    54    1
    60    52    55    1
    61    56    62   ar
    62    56    64   ar
    63    56    57    1
    64    58    64   ar
    65    58    59    1
    66    60    62   ar
    67    60    61    1
    68    62    63    1
    69    64    65    1
@<TRIPOS>SUBSTRUCTURE
     1 RES1        1 GROUP             0 ****  ****    0  
@<TRIPOS>MOLECULE
LIGAND_00353
    65    69     1     0     0
SMALL
USER_CHARGES
****
Generated from the CSD

@<TRIPOS>ATOM
     1 C1      -3.0248  -3.8117 -15.3691   C.ar      1 RES1   0.0000
     2 H2      -3.8579  -4.2218 -14.8086   H         1 RES1   0.0000
     3 C3      -0.9094  -2.7260 -16.7756   C.ar      1 RES1   0.0000
     4 H4      -0.0813  -2.2894 -17.3241   H         1 RES1   0.0000
     5 C5      -1.8085  -4.4880 -15.3803   C.ar      1 RES1   0.0000
     6 C6      -3.1929  -2.6215 -16.0545   C.ar      1 RES1   0.0000
     7 H7      -4.1477  -2.1065 -16.0477   H         1 RES1   0.0000
     8 C8      -2.1271  -2.1087 -16.7387   C.ar      1 RES1   0.0000
     9 C9      -0.7584  -3.9218 -16.0977   C.ar      1 RES1   0.0000
    10 H10      0.2005  -4.4262 -16.1329   H         1 RES1   0.0000
    11 C11     -1.6101  -5.7761 -14.6397   C.2       1 RES1   0.0000
    12 F12     -2.2837  -0.9357 -17.4105   F         1 RES1   0.0000
    13 N13     -1.2406  -7.9410 -14.1570   N.am      1 RES1   0.0000
    14 C14     -1.5106  -9.4109 -14.3092   C.3       1 RES1   0.0000
    15 H15     -1.2171  -9.7059 -15.3156   H         1 RES1   0.0000
    16 C16     -0.8997  -7.6987 -11.7768   C.3       1 RES1   0.0000
    17 H17     -1.4822  -8.4146 -11.2005   H         1 RES1   0.0000
    18 H18      0.0444  -8.1684 -12.0450   H         1 RES1   0.0000
    19 H19     -0.6845  -6.8442 -11.1387   H         1 RES1   0.0000
    20 C20     -1.7513  -5.9390 -13.3057   C.2       1 RES1   0.0000
    21 C21     -2.0254  -4.9138 -12.2663   C.ar      1 RES1   0.0000
    22 O22     -1.1751  -7.3947 -16.3880   O.2       1 RES1   0.0000
    23 C23     -1.3018  -7.0544 -15.2191   C.2       1 RES1   0.0000
    24 N24     -1.6302  -7.2794 -12.9734   N.3       1 RES1   0.0000
    25 C25     -0.9160 -11.7077 -13.4737   C.3       1 RES1   0.0000
    26 H26     -0.3413 -12.2498 -12.7242   H         1 RES1   0.0000
    27 H27     -0.6031 -12.0220 -14.4683   H         1 RES1   0.0000
    28 C28     -3.2233 -11.2475 -14.2588   C.3       1 RES1   0.0000
    29 H29     -2.9785 -11.5605 -15.2727   H         1 RES1   0.0000
    30 H30     -4.2710 -11.4637 -14.0552   H         1 RES1   0.0000
    31 C31     -2.9880  -9.7502 -14.1281   C.3       1 RES1   0.0000
    32 H32     -3.5686  -9.2307 -14.8889   H         1 RES1   0.0000
    33 H33     -3.3098  -9.4240 -13.1402   H         1 RES1   0.0000
    34 C34     -0.6731 -10.2168 -13.3154   C.3       1 RES1   0.0000
    35 H35     -0.9402  -9.9191 -12.3025   H         1 RES1   0.0000
    36 H36      0.3816 -10.0085 -13.4888   H         1 RES1   0.0000
    37 N37     -2.3708 -12.0022 -13.2938   N.4       1 RES1   1.0000
    38 H38     -2.6415 -11.7467 -12.3495   H         1 RES1   0.0000
    39 H39     -2.5225 -12.9962 -13.4320   H         1 RES1   0.0000
    40 N40     -1.1245  -3.9267 -12.1410   N.ar      1 RES1   0.0000
    41 C41     -3.2824  -3.9653 -10.5120   C.ar      1 RES1   0.0000
    42 H42     -4.1537  -3.9839  -9.8657   H         1 RES1   0.0000
    43 N43     -0.4373  -2.0325 -11.0465   N.pl3     1 RES1   0.0000
    44 H44     -0.6201  -1.3034 -10.3572   H         1 RES1   0.0000
    45 C45     -3.1458  -4.9686 -11.4502   C.ar      1 RES1   0.0000
    46 H46     -3.8787  -5.7633 -11.5427   H         1 RES1   0.0000
    47 C47     -1.3484  -3.0085 -11.1872   C.ar      1 RES1   0.0000
    48 N48     -2.3988  -2.9712 -10.3544   N.ar      1 RES1   0.0000
    49 C49      0.7703  -1.9146 -11.8634   C.3       1 RES1   0.0000
    50 H50      0.5510  -2.2938 -12.8736   H         1 RES1   0.0000
    51 C51      1.9328  -2.7036 -11.2936   C.ar      1 RES1   0.0000
    52 C52      1.1167  -0.4338 -11.9655   C.3       1 RES1   0.0000
    53 H53      1.9933  -0.2846 -12.5924   H         1 RES1   0.0000
    54 H54      0.2915   0.1284 -12.3976   H         1 RES1   0.0000
    55 H55      1.3298  -0.0204 -10.9819   H         1 RES1   0.0000
    56 C56      4.0779  -4.1484 -10.2584   C.ar      1 RES1   0.0000
    57 H57      4.9134  -4.7106  -9.8546   H         1 RES1   0.0000
    58 C58      3.1621  -2.7088 -11.9370   C.ar      1 RES1   0.0000
    59 H59      3.2891  -2.1437 -12.8545   H         1 RES1   0.0000
    60 C60      1.7955  -3.4370 -10.1231   C.ar      1 RES1   0.0000
    61 H61      0.8433  -3.4495  -9.6034   H         1 RES1   0.0000
    62 C62      2.8627  -4.1544  -9.6095   C.ar      1 RES1   0.0000
    63 H63      2.7409  -4.7227  -8.6934   H         1 RES1   0.0000
    64 C64      4.2283  -3.4260 -11.4216   C.ar      1 RES1   0.0000
    65 H65      5.1839  -3.4189 -11.9351   H         1 RES1   0.0000
@<TRIPOS>BOND
     1     1     5   ar
     2     1     6   ar
     3     1     2    1
     4     3     8   ar
     5     3     9   ar
     6     3     4    1
     7     5     9   ar
     8     5    11    1
     9     6     8   ar
    10     6     7    1
    11     8    12    1
    12     9    10    1
    13    11    20    2
    14    11    23    1
    15    13    14    1
    16    13    23   am
    17    13    24    1
    18    14    31    1
    19    14    34    1
    20    14    15    1
    21    16    24    1
    22    16    17    1
    23    16    18    1
    24    16    19    1
    25    20    21    1
    26    20    24    1
    27    21    40   ar
    28    21    45   ar
    29    22    23    2
    30    25    34    1
    31    25    37    1
    32    25    26    1
    33    25    27    1
    34    28    31    1
    35    28    37    1
    36    28    29    1
    37    28    30    1
    38    31    32    1
    39    31    33    1
    40    34    35    1
    41    34    36    1
    42    37    38    1
    43    37    39    1
    44    40    47   ar
    45    41    45   ar
    46    41    48   ar
    47    41    42    1
    48    43    47    1
    49    43    49    1
    50    43    44    1
    51    45    46    1
    52    47    48   ar
    53    49    51    1
    54    49    52    1
    55    49    50    1
    56    51    58   ar
    57    51    60   ar
    58    52    53    1
    59    52    54    1
    60    52    55    1
    61    56    62   ar
    62    56    64   ar
    63    56    57    1
    64    58    64   ar
    65    58    59    1
    66    60    62   ar
    67    60    61    1
    68    62    63    1
    69    64    65    1
@<TRIPOS>SUBSTRUCTURE
     1 RES1        1 GROUP             0 ****  ****    0  
@<TRIPOS>MOLECULE
LIGAND_00354
    65    69     1     0     0
SMALL
USER_CHARGES
****
Generated from the CSD

@<TRIPOS>ATOM
     1 C1      -0.6994  -4.2982 -11.5265   C.ar      1 RES1   0.0000
     2 H2      -0.1323  -5.0965 -11.0599   H         1 RES1   0.0000
     3 C3      -2.1079  -2.2360 -12.7076   C.ar      1 RES1   0.0000
     4 H4      -2.6530  -1.4188 -13.1683   H         1 RES1   0.0000
     5 C5      -1.2881  -4.5128 -12.7691   C.ar      1 RES1   0.0000
     6 C6      -0.8173  -3.0836 -10.8742   C.ar      1 RES1   0.0000
     7 H7      -0.3629  -2.9290  -9.9013   H         1 RES1   0.0000
     8 C8      -1.5180  -2.0824 -11.4854   C.ar      1 RES1   0.0000
     9 C9      -1.9941  -3.4590 -13.3427   C.ar      1 RES1   0.0000
    10 H10     -2.4708  -3.5947 -14.3068   H         1 RES1   0.0000
    11 C11     -1.1659  -5.8217 -13.4895   C.2       1 RES1   0.0000
    12 F12     -1.6334  -0.8834 -10.8522   F         1 RES1   0.0000
    13 N13     -1.2406  -7.9410 -14.1570   N.am      1 RES1   0.0000
    14 C14     -1.5106  -9.4109 -14.3092   C.3       1 RES1   0.0000
    15 H15     -1.1036  -9.7318 -15.2670   H         1 RES1   0.0000
    16 C16     -0.3252  -7.6743 -16.4955   C.3       1 RES1   0.0000
    17 H17      0.3598  -7.0073 -17.0149   H         1 RES1   0.0000
    18 H18      0.1291  -8.6621 -16.4559   H         1 RES1   0.0000
    19 H19     -1.2398  -7.7445 -17.0806   H         1 RES1   0.0000
    20 C20     -0.5870  -5.9122 -14.7311   C.2       1 RES1   0.0000
    21 C21      0.0604  -4.8376 -15.5265   C.ar      1 RES1   0.0000
    22 O22     -2.1510  -7.5590 -12.1278   O.2       1 RES1   0.0000
    23 C23     -1.5821  -7.1365 -13.1259   C.2       1 RES1   0.0000
    24 N24     -0.6101  -7.1788 -15.1485   N.pl3     1 RES1   0.0000
    25 C25     -1.0509 -11.6947 -13.3605   C.3       1 RES1   0.0000
    26 H26     -0.5768 -12.2260 -12.5365   H         1 RES1   0.0000
    27 H27     -0.6263 -12.0348 -14.3039   H         1 RES1   0.0000
    28 C28     -3.2420 -11.2269 -14.4245   C.3       1 RES1   0.0000
    29 H29     -2.8827 -11.5654 -15.3952   H         1 RES1   0.0000
    30 H30     -4.3093 -11.4269 -14.3426   H         1 RES1   0.0000
    31 C31     -3.0035  -9.7297 -14.2983   C.3       1 RES1   0.0000
    32 H32     -3.4824  -9.2211 -15.1337   H         1 RES1   0.0000
    33 H33     -3.4360  -9.3778 -13.3629   H         1 RES1   0.0000
    34 C34     -0.8083 -10.2033 -13.2059   C.3       1 RES1   0.0000
    35 H35     -1.1898  -9.8799 -12.2386   H         1 RES1   0.0000
    36 H36      0.2623 -10.0106 -13.2568   H         1 RES1   0.0000
    37 N37     -2.5207 -11.9690 -13.3491   N.4       1 RES1   1.0000
    38 H38     -2.8982 -11.6892 -12.4494   H         1 RES1   0.0000
    39 H39     -2.6683 -12.9641 -13.4833   H         1 RES1   0.0000
    40 N40     -0.4745  -4.5722 -16.7286   N.ar      1 RES1   0.0000
    41 C41      1.6905  -3.1773 -15.9048   C.ar      1 RES1   0.0000
    42 H42      2.5557  -2.6175 -15.5653   H         1 RES1   0.0000
    43 N43     -0.4029  -3.3687 -18.6792   N.pl3     1 RES1   0.0000
    44 H44     -1.1877  -3.9409 -18.9907   H         1 RES1   0.0000
    45 C45      1.1705  -4.1438 -15.0676   C.ar      1 RES1   0.0000
    46 H46      1.6110  -4.3522 -14.0982   H         1 RES1   0.0000
    47 C47      0.1180  -3.6205 -17.4677   C.ar      1 RES1   0.0000
    48 N48      1.1874  -2.8931 -17.1131   N.ar      1 RES1   0.0000
    49 C49      0.1244  -2.3676 -19.6062   C.3       1 RES1   0.0000
    50 H50      1.2133  -2.2924 -19.4617   H         1 RES1   0.0000
    51 C51     -0.4873  -0.9978 -19.3868   C.ar      1 RES1   0.0000
    52 C52     -0.1444  -2.8621 -21.0227   C.3       1 RES1   0.0000
    53 H53      0.4192  -2.2796 -21.7485   H         1 RES1   0.0000
    54 H54      0.1428  -3.9060 -21.1297   H         1 RES1   0.0000
    55 H55     -1.2012  -2.7749 -21.2660   H         1 RES1   0.0000
    56 C56     -1.6093   1.5223 -18.9987   C.ar      1 RES1   0.0000
    57 H57     -2.0469   2.5035 -18.8476   H         1 RES1   0.0000
    58 C58     -0.6090  -0.1046 -20.4415   C.ar      1 RES1   0.0000
    59 H59     -0.2626  -0.3911 -21.4289   H         1 RES1   0.0000
    60 C60     -0.9353  -0.6059 -18.1327   C.ar      1 RES1   0.0000
    61 H61     -0.8490  -1.2867 -17.2924   H         1 RES1   0.0000
    62 C62     -1.4931   0.6469 -17.9414   C.ar      1 RES1   0.0000
    63 H63     -1.8396   0.9394 -16.9558   H         1 RES1   0.0000
    64 C64     -1.1677   1.1474 -20.2485   C.ar      1 RES1   0.0000
    65 H65     -1.2577   1.8342 -21.0834   H         1 RES1   0.0000
@<TRIPOS>BOND
     1     1     5   ar
     2     1     6   ar
     3     1     2    1
     4     3     8   ar
     5     3     9   ar
     6     3     4    1
     7     5     9   ar
     8     5    11    1
     9     6     8   ar
    10     6     7    1
    11     8    12    1
    12     9    10    1
    13    11    20    2
    14    11    23    1
    15    13    14    1
    16    13    23   am
    17    13    24    1
    18    14    31    1
    19    14    34    1
    20    14    15    1
    21    16    24    1
    22    16    17    1
    23    16    18    1
    24    16    19    1
    25    20    21    1
    26    20    24    1
    27    21    40   ar
    28    21    45   ar
    29    22    23    2
    30    25    34    1
    31    25    37    1
    32    25    26    1
    33    25    27    1
    34    28    31    1
    35    28    37    1
    36    28    29    1
    37    28    30    1
    38    31    32    1
    39    31    33    1
    40    34    35    1
    41    34    36    1
    42    37    38    1
    43    37    39    1
    44    40    47   ar
    45    41    45   ar
    46    41    48   ar
    47    41    42    1
    48    43    47    1
    49    43    49    1
    50    43    44    1
    51    45    46    1
    52    47    48   ar
    53    49    51    1
    54    49    52    1
    55    49    50    1
    56    51    58   ar
    57    51    60   ar
    58    52    53    1
    59    52    54    1
    60    52    55    1
    61    56    62   ar
    62    56    64   ar
    63    56    57    1
    64    58    64   ar
    65    58    59    1
    66    60    62   ar
    67    60    61    1
    68    62    63    1
    69    64    65    1
@<TRIPOS>SUBSTRUCTURE
     1 RES1        1 GROUP             0 ****  ****    0  
@<TRIPOS>MOLECULE
LIGAND_00355
    65    69     1     0     0
SMALL
USER_CHARGES
****
Generated from the CSD

@<TRIPOS>ATOM
     1 C1      -0.1734  -3.7512 -12.4311   C.ar      1 RES1   0.0000
     2 H2       0.8163  -4.1080 -12.6950   H         1 RES1   0.0000
     3 C3      -2.6840  -2.8012 -11.7784   C.ar      1 RES1   0.0000
     4 H4      -3.6669  -2.4178 -11.5253   H         1 RES1   0.0000
     5 C5      -1.2881  -4.5128 -12.7691   C.ar      1 RES1   0.0000
     6 C6      -0.3010  -2.5429 -11.7691   C.ar      1 RES1   0.0000
     7 H7       0.5745  -1.9608 -11.5013   H         1 RES1   0.0000
     8 C8      -1.5563  -2.0986 -11.4624   C.ar      1 RES1   0.0000
     9 C9      -2.5420  -4.0138 -12.4278   C.ar      1 RES1   0.0000
    10 H10     -3.4308  -4.5851 -12.6702   H         1 RES1   0.0000
    11 C11     -1.1659  -5.8217 -13.4895   C.2       1 RES1   0.0000
    12 F12     -1.6896  -0.9084 -10.8162   F         1 RES1   0.0000
    13 N13     -1.2406  -7.9410 -14.1570   N.am      1 RES1   0.0000
    14 C14     -1.5106  -9.4109 -14.3092   C.3       1 RES1   0.0000
    15 H15     -1.1036  -9.7318 -15.2670   H         1 RES1   0.0000
    16 C16     -0.3252  -7.6743 -16.4955   C.3       1 RES1   0.0000
    17 H17      0.3592  -7.0069 -17.0151   H         1 RES1   0.0000
    18 H18      0.1297  -8.6618 -16.4559   H         1 RES1   0.0000
    19 H19     -1.2399  -7.7452 -17.0804   H         1 RES1   0.0000
    20 C20     -0.5870  -5.9122 -14.7311   C.2       1 RES1   0.0000
    21 C21      0.0604  -4.8376 -15.5265   C.ar      1 RES1   0.0000
    22 O22     -2.1510  -7.5590 -12.1278   O.2       1 RES1   0.0000
    23 C23     -1.5821  -7.1365 -13.1259   C.2       1 RES1   0.0000
    24 N24     -0.6101  -7.1788 -15.1485   N.pl3     1 RES1   0.0000
    25 C25     -1.0509 -11.6946 -13.3605   C.3       1 RES1   0.0000
    26 H26     -0.5769 -12.2260 -12.5365   H         1 RES1   0.0000
    27 H27     -0.6263 -12.0348 -14.3039   H         1 RES1   0.0000
    28 C28     -3.2420 -11.2269 -14.4245   C.3       1 RES1   0.0000
    29 H29     -2.8827 -11.5654 -15.3952   H         1 RES1   0.0000
    30 H30     -4.3093 -11.4269 -14.3426   H         1 RES1   0.0000
    31 C31     -3.0035  -9.7297 -14.2983   C.3       1 RES1   0.0000
    32 H32     -3.4824  -9.2211 -15.1337   H         1 RES1   0.0000
    33 H33     -3.4360  -9.3778 -13.3629   H         1 RES1   0.0000
    34 C34     -0.8083 -10.2033 -13.2059   C.3       1 RES1   0.0000
    35 H35     -1.1898  -9.8799 -12.2386   H         1 RES1   0.0000
    36 H36      0.2623 -10.0106 -13.2568   H         1 RES1   0.0000
    37 N37     -2.5207 -11.9690 -13.3491   N.4       1 RES1   1.0000
    38 H38     -2.8982 -11.6892 -12.4494   H         1 RES1   0.0000
    39 H39     -2.6683 -12.9641 -13.4833   H         1 RES1   0.0000
    40 N40      1.3518  -5.0181 -15.8447   N.ar      1 RES1   0.0000
    41 C41      0.0944  -2.7605 -16.6407   C.ar      1 RES1   0.0000
    42 H42     -0.4181  -1.8597 -16.9618   H         1 RES1   0.0000
    43 N43      3.2523  -4.2108 -16.8421   N.pl3     1 RES1   0.0000
    44 H44      3.7200  -5.0456 -16.4888   H         1 RES1   0.0000
    45 C45     -0.6202  -3.6935 -15.9166   C.ar      1 RES1   0.0000
    46 H46     -1.6635  -3.5377 -15.6629   H         1 RES1   0.0000
    47 C47      1.9548  -4.0414 -16.5414   C.ar      1 RES1   0.0000
    48 N48      1.3851  -2.9047 -16.9677   N.ar      1 RES1   0.0000
    49 C49      4.0532  -3.2429 -17.5911   C.3       1 RES1   0.0000
    50 H50      3.6786  -2.2309 -17.3722   H         1 RES1   0.0000
    51 C51      3.9832  -3.4701 -19.0884   C.ar      1 RES1   0.0000
    52 C52      5.4898  -3.3471 -17.0924   C.3       1 RES1   0.0000
    53 H53      6.0827  -2.5054 -17.4441   H         1 RES1   0.0000
    54 H54      5.5230  -3.3540 -16.0049   H         1 RES1   0.0000
    55 H55      5.9556  -4.2625 -17.4512   H         1 RES1   0.0000
    56 C56      3.8687  -3.8818 -21.8411   C.ar      1 RES1   0.0000
    57 H57      3.8242  -4.0429 -22.9132   H         1 RES1   0.0000
    58 C58      5.0475  -3.1148 -19.9044   C.ar      1 RES1   0.0000
    59 H59      5.9347  -2.6708 -19.4650   H         1 RES1   0.0000
    60 C60      2.8585  -4.0334 -19.6755   C.ar      1 RES1   0.0000
    61 H61      2.0131  -4.3177 -19.0579   H         1 RES1   0.0000
    62 C62      2.8032  -4.2378 -21.0439   C.ar      1 RES1   0.0000
    63 H63      1.9179  -4.6797 -21.4889   H         1 RES1   0.0000
    64 C64      4.9907  -3.3205 -21.2724   C.ar      1 RES1   0.0000
    65 H65      5.8317  -3.0391 -21.8972   H         1 RES1   0.0000
@<TRIPOS>BOND
     1     1     5   ar
     2     1     6   ar
     3     1     2    1
     4     3     8   ar
     5     3     9   ar
     6     3     4    1
     7     5     9   ar
     8     5    11    1
     9     6     8   ar
    10     6     7    1
    11     8    12    1
    12     9    10    1
    13    11    20    2
    14    11    23    1
    15    13    14    1
    16    13    23   am
    17    13    24    1
    18    14    31    1
    19    14    34    1
    20    14    15    1
    21    16    24    1
    22    16    17    1
    23    16    18    1
    24    16    19    1
    25    20    21    1
    26    20    24    1
    27    21    40   ar
    28    21    45   ar
    29    22    23    2
    30    25    34    1
    31    25    37    1
    32    25    26    1
    33    25    27    1
    34    28    31    1
    35    28    37    1
    36    28    29    1
    37    28    30    1
    38    31    32    1
    39    31    33    1
    40    34    35    1
    41    34    36    1
    42    37    38    1
    43    37    39    1
    44    40    47   ar
    45    41    45   ar
    46    41    48   ar
    47    41    42    1
    48    43    47    1
    49    43    49    1
    50    43    44    1
    51    45    46    1
    52    47    48   ar
    53    49    51    1
    54    49    52    1
    55    49    50    1
    56    51    58   ar
    57    51    60   ar
    58    52    53    1
    59    52    54    1
    60    52    55    1
    61    56    62   ar
    62    56    64   ar
    63    56    57    1
    64    58    64   ar
    65    58    59    1
    66    60    62   ar
    67    60    61    1
    68    62    63    1
    69    64    65    1
@<TRIPOS>SUBSTRUCTURE
     1 RES1        1 GROUP             0 ****  ****    0  
@<TRIPOS>MOLECULE
LIGAND_00356
    65    69     1     0     0
SMALL
USER_CHARGES
****
Generated from the CSD

@<TRIPOS>ATOM
     1 C1      -0.1734  -3.7512 -12.4311   C.ar      1 RES1   0.0000
     2 H2       0.8163  -4.1080 -12.6950   H         1 RES1   0.0000
     3 C3      -2.6840  -2.8012 -11.7784   C.ar      1 RES1   0.0000
     4 H4      -3.6669  -2.4178 -11.5253   H         1 RES1   0.0000
     5 C5      -1.2881  -4.5128 -12.7691   C.ar      1 RES1   0.0000
     6 C6      -0.3010  -2.5429 -11.7691   C.ar      1 RES1   0.0000
     7 H7       0.5745  -1.9608 -11.5013   H         1 RES1   0.0000
     8 C8      -1.5563  -2.0986 -11.4624   C.ar      1 RES1   0.0000
     9 C9      -2.5420  -4.0138 -12.4278   C.ar      1 RES1   0.0000
    10 H10     -3.4308  -4.5851 -12.6702   H         1 RES1   0.0000
    11 C11     -1.1659  -5.8217 -13.4895   C.2       1 RES1   0.0000
    12 F12     -1.6896  -0.9084 -10.8162   F         1 RES1   0.0000
    13 N13     -1.2406  -7.9410 -14.1570   N.am      1 RES1   0.0000
    14 C14     -1.5106  -9.4109 -14.3092   C.3       1 RES1   0.0000
    15 H15     -1.1036  -9.7318 -15.2670   H         1 RES1   0.0000
    16 C16     -0.3252  -7.6743 -16.4955   C.3       1 RES1   0.0000
    17 H17      0.3564  -7.0050 -17.0164   H         1 RES1   0.0000
    18 H18      0.1329  -8.6604 -16.4558   H         1 RES1   0.0000
    19 H19     -1.2403  -7.7485 -17.0792   H         1 RES1   0.0000
    20 C20     -0.5870  -5.9122 -14.7311   C.2       1 RES1   0.0000
    21 C21      0.0604  -4.8376 -15.5265   C.ar      1 RES1   0.0000
    22 O22     -2.1510  -7.5590 -12.1278   O.2       1 RES1   0.0000
    23 C23     -1.5821  -7.1365 -13.1259   C.2       1 RES1   0.0000
    24 N24     -0.6101  -7.1788 -15.1485   N.pl3     1 RES1   0.0000
    25 C25     -1.0508 -11.6947 -13.3605   C.3       1 RES1   0.0000
    26 H26     -0.5767 -12.2260 -12.5366   H         1 RES1   0.0000
    27 H27     -0.6263 -12.0348 -14.3039   H         1 RES1   0.0000
    28 C28     -3.2420 -11.2269 -14.4244   C.3       1 RES1   0.0000
    29 H29     -2.8827 -11.5654 -15.3951   H         1 RES1   0.0000
    30 H30     -4.3093 -11.4269 -14.3425   H         1 RES1   0.0000
    31 C31     -3.0035  -9.7298 -14.2982   C.3       1 RES1   0.0000
    32 H32     -3.4824  -9.2211 -15.1336   H         1 RES1   0.0000
    33 H33     -3.4360  -9.3778 -13.3628   H         1 RES1   0.0000
    34 C34     -0.8082 -10.2033 -13.2060   C.3       1 RES1   0.0000
    35 H35     -1.1897  -9.8799 -12.2386   H         1 RES1   0.0000
    36 H36      0.2624 -10.0106 -13.2569   H         1 RES1   0.0000
    37 N37     -2.5206 -11.9690 -13.3490   N.4       1 RES1   1.0000
    38 H38     -2.8981 -11.6893 -12.4493   H         1 RES1   0.0000
    39 H39     -2.6683 -12.9642 -13.4833   H         1 RES1   0.0000
    40 N40      1.3518  -5.0181 -15.8447   N.ar      1 RES1   0.0000
    41 C41      0.0944  -2.7605 -16.6407   C.ar      1 RES1   0.0000
    42 H42     -0.4181  -1.8597 -16.9618   H         1 RES1   0.0000
    43 N43      3.2523  -4.2108 -16.8421   N.pl3     1 RES1   0.0000
    44 H44      3.7084  -3.4976 -17.4109   H         1 RES1   0.0000
    45 C45     -0.6202  -3.6935 -15.9166   C.ar      1 RES1   0.0000
    46 H46     -1.6635  -3.5377 -15.6629   H         1 RES1   0.0000
    47 C47      1.9548  -4.0414 -16.5414   C.ar      1 RES1   0.0000
    48 N48      1.3851  -2.9047 -16.9677   N.ar      1 RES1   0.0000
    49 C49      4.0360  -5.3848 -16.4584   C.3       1 RES1   0.0000
    50 H50      3.3690  -6.2604 -16.4312   H         1 RES1   0.0000
    51 C51      4.6824  -5.2280 -15.0960   C.ar      1 RES1   0.0000
    52 C52      5.0893  -5.6101 -17.5368   C.3       1 RES1   0.0000
    53 H53      5.5523  -6.5884 -17.4260   H         1 RES1   0.0000
    54 H54      4.6461  -5.5554 -18.5289   H         1 RES1   0.0000
    55 H55      5.8715  -4.8565 -17.4733   H         1 RES1   0.0000
    56 C56      5.8817  -4.9493 -12.5971   C.ar      1 RES1   0.0000
    57 H57      6.3491  -4.8400 -11.6241   H         1 RES1   0.0000
    58 C58      5.8729  -5.8776 -14.8033   C.ar      1 RES1   0.0000
    59 H59      6.3420  -6.5019 -15.5566   H         1 RES1   0.0000
    60 C60      4.1011  -4.4377 -14.1140   C.ar      1 RES1   0.0000
    61 H61      3.1692  -3.9214 -14.3191   H         1 RES1   0.0000
    62 C62      4.6985  -4.2998 -12.8725   C.ar      1 RES1   0.0000
    63 H63      4.2331  -3.6782 -12.1148   H         1 RES1   0.0000
    64 C64      6.4693  -5.7380 -13.5616   C.ar      1 RES1   0.0000
    65 H65      7.4012  -6.2508 -13.3482   H         1 RES1   0.0000
@<TRIPOS>BOND
     1     1     5   ar
     2     1     6   ar
     3     1     2    1
     4     3     8   ar
     5     3     9   ar
     6     3     4    1
     7     5     9   ar
     8     5    11    1
     9     6     8   ar
    10     6     7    1
    11     8    12    1
    12     9    10    1
    13    11    20    2
    14    11    23    1
    15    13    14    1
    16    13    23   am
    17    13    24    1
    18    14    31    1
    19    14    34    1
    20    14    15    1
    21    16    24    1
    22    16    17    1
    23    16    18    1
    24    16    19    1
    25    20    21    1
    26    20    24    1
    27    21    40   ar
    28    21    45   ar
    29    22    23    2
    30    25    34    1
    31    25    37    1
    32    25    26    1
    33    25    27    1
    34    28    31    1
    35    28    37    1
    36    28    29    1
    37    28    30    1
    38    31    32    1
    39    31    33    1
    40    34    35    1
    41    34    36    1
    42    37    38    1
    43    37    39    1
    44    40    47   ar
    45    41    45   ar
    46    41    48   ar
    47    41    42    1
    48    43    47    1
    49    43    49    1
    50    43    44    1
    51    45    46    1
    52    47    48   ar
    53    49    51    1
    54    49    52    1
    55    49    50    1
    56    51    58   ar
    57    51    60   ar
    58    52    53    1
    59    52    54    1
    60    52    55    1
    61    56    62   ar
    62    56    64   ar
    63    56    57    1
    64    58    64   ar
    65    58    59    1
    66    60    62   ar
    67    60    61    1
    68    62    63    1
    69    64    65    1
@<TRIPOS>SUBSTRUCTURE
     1 RES1        1 GROUP             0 ****  ****    0  
@<TRIPOS>MOLECULE
LIGAND_00357
    65    69     1     0     0
SMALL
USER_CHARGES
****
Generated from the CSD

@<TRIPOS>ATOM
     1 C1      -1.0916  -4.2280 -11.6895   C.ar      1 RES1   0.0000
     2 H2      -0.5630  -5.0188 -11.1683   H         1 RES1   0.0000
     3 C3      -2.4030  -2.1847 -13.0075   C.ar      1 RES1   0.0000
     4 H4      -2.9103  -1.3748 -13.5213   H         1 RES1   0.0000
     5 C5      -1.5746  -4.4589 -12.9741   C.ar      1 RES1   0.0000
     6 C6      -1.2666  -3.0065 -11.0635   C.ar      1 RES1   0.0000
     7 H7      -0.8950  -2.8391 -10.0581   H         1 RES1   0.0000
     8 C8      -1.9170  -2.0149 -11.7424   C.ar      1 RES1   0.0000
     9 C9      -2.2335  -3.4145 -13.6166   C.ar      1 RES1   0.0000
    10 H10     -2.6282  -3.5629 -14.6152   H         1 RES1   0.0000
    11 C11     -1.3894  -5.7755 -13.6666   C.2       1 RES1   0.0000
    12 F12     -2.0879  -0.8092 -11.1350   F         1 RES1   0.0000
    13 N13     -1.2922  -7.9426 -14.2093   N.am      1 RES1   0.0000
    14 C14     -1.6385  -9.3910 -14.4057   C.3       1 RES1   0.0000
    15 H15     -1.2914  -9.6904 -15.3935   H         1 RES1   0.0000
    16 C16      0.4367  -7.8155 -15.9416   C.3       1 RES1   0.0000
    17 H17      0.7935  -7.1656 -16.7380   H         1 RES1   0.0000
    18 H18      1.2644  -8.0018 -15.2604   H         1 RES1   0.0000
    19 H19      0.1413  -8.7644 -16.3843   H         1 RES1   0.0000
    20 C20     -0.6831  -5.9011 -14.8182   C.2       1 RES1   0.0000
    21 C21      0.0470  -4.8479 -15.5693   C.ar      1 RES1   0.0000
    22 O22     -2.5135  -7.4571 -12.3133   O.2       1 RES1   0.0000
    23 C23     -1.8233  -7.0867 -13.2539   C.2       1 RES1   0.0000
    24 N24     -0.6889  -7.2015 -15.2363   N.3       1 RES1   0.0000
    25 C25     -1.2453 -11.7305 -13.5697   C.3       1 RES1   0.0000
    26 H26     -0.7600 -12.3165 -12.7906   H         1 RES1   0.0000
    27 H27     -0.8809 -12.0506 -14.5447   H         1 RES1   0.0000
    28 C28     -3.4580 -11.1195 -14.5093   C.3       1 RES1   0.0000
    29 H29     -3.1599 -11.4339 -15.5084   H         1 RES1   0.0000
    30 H30     -4.5288 -11.2737 -14.3846   H         1 RES1   0.0000
    31 C31     -3.1429  -9.6414 -14.3363   C.3       1 RES1   0.0000
    32 H32     -3.6347  -9.0774 -15.1275   H         1 RES1   0.0000
    33 H33     -3.5150  -9.3088 -13.3683   H         1 RES1   0.0000
    34 C34     -0.9252 -10.2595 -13.3688   C.3       1 RES1   0.0000
    35 H35     -1.2463  -9.9591 -12.3725   H         1 RES1   0.0000
    36 H36      0.1500 -10.1140 -13.4629   H         1 RES1   0.0000
    37 N37     -2.7245 -11.9375 -13.4991   N.4       1 RES1   1.0000
    38 H38     -3.0468 -11.6781 -12.5723   H         1 RES1   0.0000
    39 H39     -2.9253 -12.9185 -13.6649   H         1 RES1   0.0000
    40 N40     -0.6947  -3.8650 -16.1037   N.ar      1 RES1   0.0000
    41 C41      1.9856  -3.8455 -16.4604   C.ar      1 RES1   0.0000
    42 H42      3.0623  -3.8409 -16.5945   H         1 RES1   0.0000
    43 N43     -0.7912  -1.9491 -17.3600   N.pl3     1 RES1   0.0000
    44 H44     -0.3066  -1.1967 -17.8493   H         1 RES1   0.0000
    45 C45      1.4247  -4.8733 -15.7293   C.ar      1 RES1   0.0000
    46 H46      2.0325  -5.6643 -15.3026   H         1 RES1   0.0000
    47 C47     -0.0484  -2.9212 -16.8069   C.ar      1 RES1   0.0000
    48 N48      1.2748  -2.8546 -17.0142   N.ar      1 RES1   0.0000
    49 C49     -2.2476  -1.8678 -17.2508   C.3       1 RES1   0.0000
    50 H50     -2.6462  -2.8816 -17.0910   H         1 RES1   0.0000
    51 C51     -2.8890  -1.2877 -18.4961   C.ar      1 RES1   0.0000
    52 C52     -2.5728  -1.0198 -16.0268   C.3       1 RES1   0.0000
    53 H53     -3.5024  -1.3473 -15.5660   H         1 RES1   0.0000
    54 H54     -1.7820  -1.0931 -15.2832   H         1 RES1   0.0000
    55 H55     -2.6823   0.0269 -16.3026   H         1 RES1   0.0000
    56 C56     -4.0550  -0.2128 -20.7863   C.ar      1 RES1   0.0000
    57 H57     -4.5089   0.2053 -21.6787   H         1 RES1   0.0000
    58 C58     -2.2309  -0.3192 -19.2403   C.ar      1 RES1   0.0000
    59 H59     -1.2507   0.0239 -18.9261   H         1 RES1   0.0000
    60 C60     -4.1432  -1.7072 -18.9176   C.ar      1 RES1   0.0000
    61 H61     -4.6778  -2.4622 -18.3508   H         1 RES1   0.0000
    62 C62     -4.7214  -1.1723 -20.0564   C.ar      1 RES1   0.0000
    63 H63     -5.7021  -1.5102 -20.3742   H         1 RES1   0.0000
    64 C64     -2.8102   0.2141 -20.3791   C.ar      1 RES1   0.0000
    65 H65     -2.2824   0.9695 -20.9517   H         1 RES1   0.0000
@<TRIPOS>BOND
     1     1     5   ar
     2     1     6   ar
     3     1     2    1
     4     3     8   ar
     5     3     9   ar
     6     3     4    1
     7     5     9   ar
     8     5    11    1
     9     6     8   ar
    10     6     7    1
    11     8    12    1
    12     9    10    1
    13    11    20    2
    14    11    23    1
    15    13    14    1
    16    13    23   am
    17    13    24    1
    18    14    31    1
    19    14    34    1
    20    14    15    1
    21    16    24    1
    22    16    17    1
    23    16    18    1
    24    16    19    1
    25    20    21    1
    26    20    24    1
    27    21    40   ar
    28    21    45   ar
    29    22    23    2
    30    25    34    1
    31    25    37    1
    32    25    26    1
    33    25    27    1
    34    28    31    1
    35    28    37    1
    36    28    29    1
    37    28    30    1
    38    31    32    1
    39    31    33    1
    40    34    35    1
    41    34    36    1
    42    37    38    1
    43    37    39    1
    44    40    47   ar
    45    41    45   ar
    46    41    48   ar
    47    41    42    1
    48    43    47    1
    49    43    49    1
    50    43    44    1
    51    45    46    1
    52    47    48   ar
    53    49    51    1
    54    49    52    1
    55    49    50    1
    56    51    58   ar
    57    51    60   ar
    58    52    53    1
    59    52    54    1
    60    52    55    1
    61    56    62   ar
    62    56    64   ar
    63    56    57    1
    64    58    64   ar
    65    58    59    1
    66    60    62   ar
    67    60    61    1
    68    62    63    1
    69    64    65    1
@<TRIPOS>SUBSTRUCTURE
     1 RES1        1 GROUP             0 ****  ****    0  
@<TRIPOS>MOLECULE
LIGAND_00358
    65    69     1     0     0
SMALL
USER_CHARGES
****
Generated from the CSD

@<TRIPOS>ATOM
     1 C1      -1.2360  -3.4877 -12.8971   C.ar      1 RES1   0.0000
     2 H2      -0.3321  -3.8526 -12.4213   H         1 RES1   0.0000
     3 C3      -3.5150  -2.5205 -14.1228   C.ar      1 RES1   0.0000
     4 H4      -4.4048  -2.1308 -14.6061   H         1 RES1   0.0000
     5 C5      -1.9397  -4.3224 -13.7602   C.ar      1 RES1   0.0000
     6 C6      -1.6623  -2.1974 -12.6366   C.ar      1 RES1   0.0000
     7 H7      -1.1123  -1.5575 -11.9547   H         1 RES1   0.0000
     8 C8      -2.7917  -1.7472 -13.2602   C.ar      1 RES1   0.0000
     9 C9      -3.0858  -3.8127 -14.3641   C.ar      1 RES1   0.0000
    10 H10     -3.6613  -4.4386 -15.0365   H         1 RES1   0.0000
    11 C11     -1.4881  -5.7210 -14.0551   C.2       1 RES1   0.0000
    12 F12     -3.2139  -0.4773 -13.0129   F         1 RES1   0.0000
    13 N13     -1.2406  -7.9410 -14.1570   N.am      1 RES1   0.0000
    14 C14     -1.5106  -9.4109 -14.3092   C.3       1 RES1   0.0000
    15 H15     -1.1001  -9.7326 -15.2652   H         1 RES1   0.0000
    16 C16      1.1525  -8.0254 -14.6787   C.3       1 RES1   0.0000
    17 H17      1.9653  -7.3588 -14.9592   H         1 RES1   0.0000
    18 H18      1.3282  -8.3631 -13.6594   H         1 RES1   0.0000
    19 H19      1.1836  -8.8934 -15.3339   H         1 RES1   0.0000
    20 C20     -0.2822  -5.9961 -14.6126   C.2       1 RES1   0.0000
    21 C21      0.7971  -5.0460 -14.9858   C.ar      1 RES1   0.0000
    22 O22     -3.2591  -7.2142 -13.3089   O.2       1 RES1   0.0000
    23 C23     -2.1513  -6.9682 -13.7677   C.2       1 RES1   0.0000
    24 N24     -0.1378  -7.3433 -14.7851   N.3       1 RES1   0.0000
    25 C25     -1.0553 -11.6942 -13.3572   C.3       1 RES1   0.0000
    26 H26     -0.5846 -12.2251 -12.5311   H         1 RES1   0.0000
    27 H27     -0.6273 -12.0351 -14.2987   H         1 RES1   0.0000
    28 C28     -3.2423 -11.2263 -14.4297   C.3       1 RES1   0.0000
    29 H29     -2.8794 -11.5657 -15.3988   H         1 RES1   0.0000
    30 H30     -4.3100 -11.4258 -14.3517   H         1 RES1   0.0000
    31 C31     -3.0037  -9.7292 -14.3037   C.3       1 RES1   0.0000
    32 H32     -3.4792  -9.2209 -15.1412   H         1 RES1   0.0000
    33 H33     -3.4395  -9.3764 -13.3701   H         1 RES1   0.0000
    34 C34     -0.8127 -10.2028 -13.2028   C.3       1 RES1   0.0000
    35 H35     -1.1978  -9.8786 -12.2371   H         1 RES1   0.0000
    36 H36      0.2581 -10.0105 -13.2497   H         1 RES1   0.0000
    37 N37     -2.5252 -11.9679 -13.3511   N.4       1 RES1   1.0000
    38 H38     -2.9061 -11.6874 -12.4530   H         1 RES1   0.0000
    39 H39     -2.6728 -12.9631 -13.4852   H         1 RES1   0.0000
    40 N40      1.7141  -4.7755 -14.0437   N.ar      1 RES1   0.0000
    41 C41      1.9021  -3.5746 -16.4591   C.ar      1 RES1   0.0000
    42 H42      1.9746  -3.1009 -17.4326   H         1 RES1   0.0000
    43 N43      3.5856  -3.6103 -13.4127   N.pl3     1 RES1   0.0000
    44 H44      4.3505  -2.9815 -13.6571   H         1 RES1   0.0000
    45 C45      0.8590  -4.4510 -16.2374   C.ar      1 RES1   0.0000
    46 H46      0.1216  -4.6620 -17.0048   H         1 RES1   0.0000
    47 C47      2.6799  -3.8982 -14.3610   C.ar      1 RES1   0.0000
    48 N48      2.8287  -3.2756 -15.5394   N.ar      1 RES1   0.0000
    49 C49      3.5797  -4.1912 -12.0703   C.3       1 RES1   0.0000
    50 H50      3.1838  -5.2168 -12.1318   H         1 RES1   0.0000
    51 C51      2.7223  -3.4001 -11.1020   C.ar      1 RES1   0.0000
    52 C52      5.0242  -4.2566 -11.5884   C.3       1 RES1   0.0000
    53 H53      5.0822  -4.7129 -10.6024   H         1 RES1   0.0000
    54 H54      5.6340  -4.8454 -12.2705   H         1 RES1   0.0000
    55 H55      5.4537  -3.2590 -11.5254   H         1 RES1   0.0000
    56 C56      1.1558  -1.9339  -9.3253   C.ar      1 RES1   0.0000
    57 H57      0.5451  -1.3628  -8.6339   H         1 RES1   0.0000
    58 C58      3.0083  -2.0690 -10.8349   C.ar      1 RES1   0.0000
    59 H59      3.8525  -1.5938 -11.3235   H         1 RES1   0.0000
    60 C60      1.6388  -3.9855 -10.4616   C.ar      1 RES1   0.0000
    61 H61      1.3967  -5.0256 -10.6533   H         1 RES1   0.0000
    62 C62      0.8608  -3.2554  -9.5790   C.ar      1 RES1   0.0000
    63 H63      0.0165  -3.7259  -9.0862   H         1 RES1   0.0000
    64 C64      2.2289  -1.3403  -9.9527   C.ar      1 RES1   0.0000
    65 H65      2.4640  -0.2997  -9.7553   H         1 RES1   0.0000
@<TRIPOS>BOND
     1     1     5   ar
     2     1     6   ar
     3     1     2    1
     4     3     8   ar
     5     3     9   ar
     6     3     4    1
     7     5     9   ar
     8     5    11    1
     9     6     8   ar
    10     6     7    1
    11     8    12    1
    12     9    10    1
    13    11    20    2
    14    11    23    1
    15    13    14    1
    16    13    23   am
    17    13    24    1
    18    14    31    1
    19    14    34    1
    20    14    15    1
    21    16    24    1
    22    16    17    1
    23    16    18    1
    24    16    19    1
    25    20    21    1
    26    20    24    1
    27    21    40   ar
    28    21    45   ar
    29    22    23    2
    30    25    34    1
    31    25    37    1
    32    25    26    1
    33    25    27    1
    34    28    31    1
    35    28    37    1
    36    28    29    1
    37    28    30    1
    38    31    32    1
    39    31    33    1
    40    34    35    1
    41    34    36    1
    42    37    38    1
    43    37    39    1
    44    40    47   ar
    45    41    45   ar
    46    41    48   ar
    47    41    42    1
    48    43    47    1
    49    43    49    1
    50    43    44    1
    51    45    46    1
    52    47    48   ar
    53    49    51    1
    54    49    52    1
    55    49    50    1
    56    51    58   ar
    57    51    60   ar
    58    52    53    1
    59    52    54    1
    60    52    55    1
    61    56    62   ar
    62    56    64   ar
    63    56    57    1
    64    58    64   ar
    65    58    59    1
    66    60    62   ar
    67    60    61    1
    68    62    63    1
    69    64    65    1
@<TRIPOS>SUBSTRUCTURE
     1 RES1        1 GROUP             0 ****  ****    0  
@<TRIPOS>MOLECULE
LIGAND_00359
    65    69     1     0     0
SMALL
USER_CHARGES
****
Generated from the CSD

@<TRIPOS>ATOM
     1 C1      -0.4639  -3.4874 -12.8730   C.ar      1 RES1   0.0000
     2 H2       0.4711  -3.6661 -13.3930   H         1 RES1   0.0000
     3 C3      -2.8499  -2.9922 -11.5716   C.ar      1 RES1   0.0000
     4 H4      -3.7872  -2.7874 -11.0649   H         1 RES1   0.0000
     5 C5      -1.4352  -4.4838 -12.8497   C.ar      1 RES1   0.0000
     6 C6      -0.6678  -2.2687 -12.2504   C.ar      1 RES1   0.0000
     7 H7       0.0992  -1.5016 -12.2658   H         1 RES1   0.0000
     8 C8      -1.8594  -2.0530 -11.6173   C.ar      1 RES1   0.0000
     9 C9      -2.6281  -4.2110 -12.1861   C.ar      1 RES1   0.0000
    10 H10     -3.4030  -4.9678 -12.1430   H         1 RES1   0.0000
    11 C11     -1.2301  -5.8075 -13.5227   C.2       1 RES1   0.0000
    12 F12     -2.0691  -0.8546 -11.0076   F         1 RES1   0.0000
    13 N13     -1.1953  -7.9466 -14.1276   N.am      1 RES1   0.0000
    14 C14     -1.4043  -9.4293 -14.2476   C.3       1 RES1   0.0000
    15 H15     -0.9382  -9.7624 -15.1738   H         1 RES1   0.0000
    16 C16     -0.1742  -7.7135 -16.4256   C.3       1 RES1   0.0000
    17 H17      0.5163  -7.0396 -16.9285   H         1 RES1   0.0000
    18 H18      0.3073  -8.6849 -16.3339   H         1 RES1   0.0000
    19 H19     -1.0545  -7.8291 -17.0544   H         1 RES1   0.0000
    20 C20     -0.5870  -5.9122 -14.7311   C.2       1 RES1   0.0000
    21 C21      0.0604  -4.8376 -15.5265   C.ar      1 RES1   0.0000
    22 O22     -2.2192  -7.5403 -12.1581   O.2       1 RES1   0.0000
    23 C23     -1.6166  -7.1259 -13.1397   C.2       1 RES1   0.0000
    24 N24     -0.5437  -7.1903 -15.1100   N.pl3     1 RES1   0.0000
    25 C25     -0.9115 -11.6659 -13.2074   C.3       1 RES1   0.0000
    26 H26     -0.4610 -12.1550 -12.3451   H         1 RES1   0.0000
    27 H27     -0.4279 -12.0171 -14.1177   H         1 RES1   0.0000
    28 C28     -3.0615 -11.3113 -14.3923   C.3       1 RES1   0.0000
    29 H29     -2.6417 -11.6642 -15.3331   H         1 RES1   0.0000
    30 H30     -4.1238 -11.5485 -14.3572   H         1 RES1   0.0000
    31 C31     -2.8835  -9.8032 -14.3007   C.3       1 RES1   0.0000
    32 H32     -3.3375  -9.3373 -15.1740   H         1 RES1   0.0000
    33 H33     -3.3750  -9.4407 -13.3991   H         1 RES1   0.0000
    34 C34     -0.7307 -10.1627 -13.0871   C.3       1 RES1   0.0000
    35 H35     -1.1719  -9.8258 -12.1502   H         1 RES1   0.0000
    36 H36      0.3335  -9.9316 -13.0909   H         1 RES1   0.0000
    37 N37     -2.3693 -11.9944 -13.2602   N.4       1 RES1   1.0000
    38 H38     -2.8016 -11.7030 -12.3893   H         1 RES1   0.0000
    39 H39     -2.4742 -12.9979 -13.3708   H         1 RES1   0.0000
    40 N40     -0.7315  -4.1442 -16.3595   N.ar      1 RES1   0.0000
    41 C41      1.9032  -3.5489 -16.2337   C.ar      1 RES1   0.0000
    42 H42      2.9602  -3.3115 -16.1736   H         1 RES1   0.0000
    43 N43     -0.9391  -2.5074 -17.9520   N.pl3     1 RES1   0.0000
    44 H44     -1.9188  -2.7827 -18.0211   H         1 RES1   0.0000
    45 C45      1.4167  -4.5622 -15.4325   C.ar      1 RES1   0.0000
    46 H46      2.0651  -5.1182 -14.7635   H         1 RES1   0.0000
    47 C47     -0.1524  -3.1875 -17.1028   C.ar      1 RES1   0.0000
    48 N48      1.1435  -2.8434 -17.0815   N.ar      1 RES1   0.0000
    49 C49     -0.4653  -1.4381 -18.8304   C.3       1 RES1   0.0000
    50 H50      0.5701  -1.6617 -19.1310   H         1 RES1   0.0000
    51 C51     -0.4893  -0.0814 -18.1542   C.ar      1 RES1   0.0000
    52 C52     -1.3435  -1.4399 -20.0762   C.3       1 RES1   0.0000
    53 H53     -1.0135  -0.6810 -20.7825   H         1 RES1   0.0000
    54 H54     -1.3065  -2.4060 -20.5751   H         1 RES1   0.0000
    55 H55     -2.3795  -1.2325 -19.8162   H         1 RES1   0.0000
    56 C56     -0.5454   2.4069 -16.9029   C.ar      1 RES1   0.0000
    57 H57     -0.5667   3.3758 -16.4152   H         1 RES1   0.0000
    58 C58     -1.4286   0.1986 -17.1722   C.ar      1 RES1   0.0000
    59 H59     -2.1500  -0.5606 -16.8887   H         1 RES1   0.0000
    60 C60      0.4206   0.9079 -18.5008   C.ar      1 RES1   0.0000
    61 H61      1.1633   0.7127 -19.2673   H         1 RES1   0.0000
    62 C62      0.3918   2.1442 -17.8778   C.ar      1 RES1   0.0000
    63 H63      1.1096   2.9077 -18.1585   H         1 RES1   0.0000
    64 C64     -1.4555   1.4350 -16.5497   C.ar      1 RES1   0.0000
    65 H65     -2.1949   1.6385 -15.7823   H         1 RES1   0.0000
@<TRIPOS>BOND
     1     1     5   ar
     2     1     6   ar
     3     1     2    1
     4     3     8   ar
     5     3     9   ar
     6     3     4    1
     7     5     9   ar
     8     5    11    1
     9     6     8   ar
    10     6     7    1
    11     8    12    1
    12     9    10    1
    13    11    20    2
    14    11    23    1
    15    13    14    1
    16    13    23   am
    17    13    24    1
    18    14    31    1
    19    14    34    1
    20    14    15    1
    21    16    24    1
    22    16    17    1
    23    16    18    1
    24    16    19    1
    25    20    21    1
    26    20    24    1
    27    21    40   ar
    28    21    45   ar
    29    22    23    2
    30    25    34    1
    31    25    37    1
    32    25    26    1
    33    25    27    1
    34    28    31    1
    35    28    37    1
    36    28    29    1
    37    28    30    1
    38    31    32    1
    39    31    33    1
    40    34    35    1
    41    34    36    1
    42    37    38    1
    43    37    39    1
    44    40    47   ar
    45    41    45   ar
    46    41    48   ar
    47    41    42    1
    48    43    47    1
    49    43    49    1
    50    43    44    1
    51    45    46    1
    52    47    48   ar
    53    49    51    1
    54    49    52    1
    55    49    50    1
    56    51    58   ar
    57    51    60   ar
    58    52    53    1
    59    52    54    1
    60    52    55    1
    61    56    62   ar
    62    56    64   ar
    63    56    57    1
    64    58    64   ar
    65    58    59    1
    66    60    62   ar
    67    60    61    1
    68    62    63    1
    69    64    65    1
@<TRIPOS>SUBSTRUCTURE
     1 RES1        1 GROUP             0 ****  ****    0  
@<TRIPOS>MOLECULE
LIGAND_00360
    65    69     1     0     0
SMALL
USER_CHARGES
****
Generated from the CSD

@<TRIPOS>ATOM
     1 C1      -2.7105  -3.7024 -15.4394   C.ar      1 RES1   0.0000
     2 H2      -3.6196  -4.0709 -14.9765   H         1 RES1   0.0000
     3 C3      -0.4014  -2.7229 -16.5969   C.ar      1 RES1   0.0000
     4 H4       0.5031  -2.3279 -17.0477   H         1 RES1   0.0000
     5 C5      -1.5421  -4.4525 -15.3451   C.ar      1 RES1   0.0000
     6 C6      -2.7364  -2.4910 -16.1075   C.ar      1 RES1   0.0000
     7 H7      -3.6544  -1.9180 -16.1839   H         1 RES1   0.0000
     8 C8      -1.5774  -2.0321 -16.6673   C.ar      1 RES1   0.0000
     9 C9      -0.3922  -3.9386 -15.9381   C.ar      1 RES1   0.0000
    10 H10      0.5334  -4.5007 -15.8893   H         1 RES1   0.0000
    11 C11     -1.4977  -5.7645 -14.6215   C.2       1 RES1   0.0000
    12 F12     -1.5942  -0.8388 -17.3212   F         1 RES1   0.0000
    13 N13     -1.3297  -7.9594 -14.1624   N.am      1 RES1   0.0000
    14 C14     -1.6971  -9.4014 -14.3678   C.3       1 RES1   0.0000
    15 H15     -1.3542  -9.6998 -15.3574   H         1 RES1   0.0000
    16 C16     -1.1526  -7.7849 -11.7585   C.3       1 RES1   0.0000
    17 H17     -1.8260  -8.4700 -11.2476   H         1 RES1   0.0000
    18 H18     -0.2248  -8.3140 -11.9659   H         1 RES1   0.0000
    19 H19     -0.9299  -6.9611 -11.0836   H         1 RES1   0.0000
    20 C20     -1.7513  -5.9390 -13.3057   C.2       1 RES1   0.0000
    21 C21     -2.0254  -4.9138 -12.2663   C.ar      1 RES1   0.0000
    22 O22     -1.0547  -7.3815 -16.3693   O.2       1 RES1   0.0000
    23 C23     -1.2435  -7.0526 -15.2055   C.2       1 RES1   0.0000
    24 N24     -1.7568  -7.2903 -12.9961   N.3       1 RES1   0.0000
    25 C25     -1.3383 -11.7515 -13.5462   C.3       1 RES1   0.0000
    26 H26     -0.8618 -12.3493 -12.7706   H         1 RES1   0.0000
    27 H27     -0.9784 -12.0709 -14.5231   H         1 RES1   0.0000
    28 C28     -3.5416 -11.1025 -14.4823   C.3       1 RES1   0.0000
    29 H29     -3.2479 -11.4150 -15.4833   H         1 RES1   0.0000
    30 H30     -4.6146 -11.2417 -14.3587   H         1 RES1   0.0000
    31 C31     -3.2050  -9.6301 -14.3001   C.3       1 RES1   0.0000
    32 H32     -3.6883  -9.0542 -15.0879   H         1 RES1   0.0000
    33 H33     -3.5724  -9.2982 -13.3302   H         1 RES1   0.0000
    34 C34     -0.9967 -10.2866 -13.3362   C.3       1 RES1   0.0000
    35 H35     -1.3136  -9.9877 -12.3381   H         1 RES1   0.0000
    36 H36      0.0804 -10.1563 -13.4293   H         1 RES1   0.0000
    37 N37     -2.8203 -11.9373 -13.4771   N.4       1 RES1   1.0000
    38 H38     -3.1390 -11.6789 -12.5487   H         1 RES1   0.0000
    39 H39     -3.0355 -12.9142 -13.6489   H         1 RES1   0.0000
    40 N40     -1.1072  -4.7783 -11.2966   N.ar      1 RES1   0.0000
    41 C41     -3.3226  -3.2287 -11.2491   C.ar      1 RES1   0.0000
    42 H42     -4.2112  -2.6061 -11.2397   H         1 RES1   0.0000
    43 N43     -0.4495  -3.7510  -9.3549   N.pl3     1 RES1   0.0000
    44 H44      0.3501  -4.3842  -9.3613   H         1 RES1   0.0000
    45 C45     -3.1749  -4.1373 -12.2777   C.ar      1 RES1   0.0000
    46 H46     -3.9235  -4.2406 -13.0562   H         1 RES1   0.0000
    47 C47     -1.3567  -3.8727 -10.3371   C.ar      1 RES1   0.0000
    48 N48     -2.4311  -3.0737 -10.2618   N.ar      1 RES1   0.0000
    49 C49     -0.5681  -2.8098  -8.2415   C.3       1 RES1   0.0000
    50 H50     -1.1620  -1.9442  -8.5736   H         1 RES1   0.0000
    51 C51      0.7804  -2.3132  -7.7584   C.ar      1 RES1   0.0000
    52 C52     -1.3218  -3.5138  -7.1193   C.3       1 RES1   0.0000
    53 H53     -1.6577  -2.7985  -6.3716   H         1 RES1   0.0000
    54 H54     -2.1951  -4.0347  -7.5062   H         1 RES1   0.0000
    55 H55     -0.6830  -4.2437  -6.6264   H         1 RES1   0.0000
    56 C56      3.2523  -1.3989  -6.8562   C.ar      1 RES1   0.0000
    57 H57      4.2153  -1.0435  -6.5048   H         1 RES1   0.0000
    58 C58      0.9578  -1.9344  -6.4354   C.ar      1 RES1   0.0000
    59 H59      0.1235  -1.9947  -5.7443   H         1 RES1   0.0000
    60 C60      1.8626  -2.2238  -8.6230   C.ar      1 RES1   0.0000
    61 H61      1.7475  -2.5126  -9.6624   H         1 RES1   0.0000
    62 C62      3.0908  -1.7695  -8.1731   C.ar      1 RES1   0.0000
    63 H63      3.9280  -1.7055  -8.8601   H         1 RES1   0.0000
    64 C64      2.1867  -1.4811  -5.9872   C.ar      1 RES1   0.0000
    65 H65      2.3104  -1.1902  -4.9493   H         1 RES1   0.0000
@<TRIPOS>BOND
     1     1     5   ar
     2     1     6   ar
     3     1     2    1
     4     3     8   ar
     5     3     9   ar
     6     3     4    1
     7     5     9   ar
     8     5    11    1
     9     6     8   ar
    10     6     7    1
    11     8    12    1
    12     9    10    1
    13    11    20    2
    14    11    23    1
    15    13    14    1
    16    13    23   am
    17    13    24    1
    18    14    31    1
    19    14    34    1
    20    14    15    1
    21    16    24    1
    22    16    17    1
    23    16    18    1
    24    16    19    1
    25    20    21    1
    26    20    24    1
    27    21    40   ar
    28    21    45   ar
    29    22    23    2
    30    25    34    1
    31    25    37    1
    32    25    26    1
    33    25    27    1
    34    28    31    1
    35    28    37    1
    36    28    29    1
    37    28    30    1
    38    31    32    1
    39    31    33    1
    40    34    35    1
    41    34    36    1
    42    37    38    1
    43    37    39    1
    44    40    47   ar
    45    41    45   ar
    46    41    48   ar
    47    41    42    1
    48    43    47    1
    49    43    49    1
    50    43    44    1
    51    45    46    1
    52    47    48   ar
    53    49    51    1
    54    49    52    1
    55    49    50    1
    56    51    58   ar
    57    51    60   ar
    58    52    53    1
    59    52    54    1
    60    52    55    1
    61    56    62   ar
    62    56    64   ar
    63    56    57    1
    64    58    64   ar
    65    58    59    1
    66    60    62   ar
    67    60    61    1
    68    62    63    1
    69    64    65    1
@<TRIPOS>SUBSTRUCTURE
     1 RES1        1 GROUP             0 ****  ****    0  
@<TRIPOS>MOLECULE
LIGAND_00361
    65    69     1     0     0
SMALL
USER_CHARGES
****
Generated from the CSD

@<TRIPOS>ATOM
     1 C1      -2.7105  -3.7024 -15.4394   C.ar      1 RES1   0.0000
     2 H2      -3.6196  -4.0709 -14.9765   H         1 RES1   0.0000
     3 C3      -0.4014  -2.7229 -16.5969   C.ar      1 RES1   0.0000
     4 H4       0.5031  -2.3279 -17.0477   H         1 RES1   0.0000
     5 C5      -1.5421  -4.4525 -15.3451   C.ar      1 RES1   0.0000
     6 C6      -2.7364  -2.4910 -16.1075   C.ar      1 RES1   0.0000
     7 H7      -3.6544  -1.9180 -16.1839   H         1 RES1   0.0000
     8 C8      -1.5774  -2.0321 -16.6673   C.ar      1 RES1   0.0000
     9 C9      -0.3922  -3.9386 -15.9381   C.ar      1 RES1   0.0000
    10 H10      0.5334  -4.5007 -15.8893   H         1 RES1   0.0000
    11 C11     -1.4977  -5.7645 -14.6215   C.2       1 RES1   0.0000
    12 F12     -1.5942  -0.8388 -17.3212   F         1 RES1   0.0000
    13 N13     -1.3297  -7.9594 -14.1624   N.am      1 RES1   0.0000
    14 C14     -1.6971  -9.4014 -14.3678   C.3       1 RES1   0.0000
    15 H15     -1.3542  -9.6998 -15.3574   H         1 RES1   0.0000
    16 C16     -1.1526  -7.7849 -11.7585   C.3       1 RES1   0.0000
    17 H17     -1.8260  -8.4700 -11.2476   H         1 RES1   0.0000
    18 H18     -0.2248  -8.3140 -11.9659   H         1 RES1   0.0000
    19 H19     -0.9299  -6.9611 -11.0836   H         1 RES1   0.0000
    20 C20     -1.7513  -5.9390 -13.3057   C.2       1 RES1   0.0000
    21 C21     -2.0254  -4.9138 -12.2663   C.ar      1 RES1   0.0000
    22 O22     -1.0547  -7.3815 -16.3693   O.2       1 RES1   0.0000
    23 C23     -1.2435  -7.0526 -15.2055   C.2       1 RES1   0.0000
    24 N24     -1.7568  -7.2903 -12.9961   N.3       1 RES1   0.0000
    25 C25     -1.3383 -11.7515 -13.5462   C.3       1 RES1   0.0000
    26 H26     -0.8618 -12.3493 -12.7706   H         1 RES1   0.0000
    27 H27     -0.9784 -12.0709 -14.5232   H         1 RES1   0.0000
    28 C28     -3.5416 -11.1025 -14.4823   C.3       1 RES1   0.0000
    29 H29     -3.2479 -11.4150 -15.4833   H         1 RES1   0.0000
    30 H30     -4.6146 -11.2417 -14.3587   H         1 RES1   0.0000
    31 C31     -3.2050  -9.6301 -14.3001   C.3       1 RES1   0.0000
    32 H32     -3.6883  -9.0542 -15.0879   H         1 RES1   0.0000
    33 H33     -3.5724  -9.2982 -13.3302   H         1 RES1   0.0000
    34 C34     -0.9967 -10.2866 -13.3362   C.3       1 RES1   0.0000
    35 H35     -1.3136  -9.9877 -12.3381   H         1 RES1   0.0000
    36 H36      0.0804 -10.1563 -13.4293   H         1 RES1   0.0000
    37 N37     -2.8203 -11.9373 -13.4771   N.4       1 RES1   1.0000
    38 H38     -3.1390 -11.6789 -12.5487   H         1 RES1   0.0000
    39 H39     -3.0355 -12.9142 -13.6489   H         1 RES1   0.0000
    40 N40     -1.1072  -4.7783 -11.2966   N.ar      1 RES1   0.0000
    41 C41     -3.3226  -3.2287 -11.2491   C.ar      1 RES1   0.0000
    42 H42     -4.2112  -2.6061 -11.2397   H         1 RES1   0.0000
    43 N43     -0.4495  -3.7510  -9.3549   N.pl3     1 RES1   0.0000
    44 H44     -0.6036  -3.0322  -8.6479   H         1 RES1   0.0000
    45 C45     -3.1749  -4.1373 -12.2777   C.ar      1 RES1   0.0000
    46 H46     -3.9235  -4.2406 -13.0562   H         1 RES1   0.0000
    47 C47     -1.3567  -3.8727 -10.3371   C.ar      1 RES1   0.0000
    48 N48     -2.4311  -3.0737 -10.2618   N.ar      1 RES1   0.0000
    49 C49      0.7780  -4.5421  -9.2702   C.3       1 RES1   0.0000
    50 H50      0.6096  -5.5086  -9.7700   H         1 RES1   0.0000
    51 C51      1.1976  -4.8062  -7.8375   C.ar      1 RES1   0.0000
    52 C52      1.8667  -3.7885 -10.0251   C.3       1 RES1   0.0000
    53 H53      2.7240  -4.4321 -10.2109   H         1 RES1   0.0000
    54 H54      1.4972  -3.4312 -10.9840   H         1 RES1   0.0000
    55 H55      2.2070  -2.9287  -9.4518   H         1 RES1   0.0000
    56 C56      1.9836  -5.2921  -5.2095   C.ar      1 RES1   0.0000
    57 H57      2.2896  -5.4806  -4.1858   H         1 RES1   0.0000
    58 C58      2.5363  -4.9808  -7.5174   C.ar      1 RES1   0.0000
    59 H59      3.2857  -4.9279  -8.3002   H         1 RES1   0.0000
    60 C60      0.2583  -4.8817  -6.8183   C.ar      1 RES1   0.0000
    61 H61     -0.7946  -4.7502  -7.0447   H         1 RES1   0.0000
    62 C62      0.6504  -5.1229  -5.5124   C.ar      1 RES1   0.0000
    63 H63     -0.0948  -5.1786  -4.7259   H         1 RES1   0.0000
    64 C64      2.9267  -5.2211  -6.2110   C.ar      1 RES1   0.0000
    65 H65      3.9775  -5.3538  -5.9760   H         1 RES1   0.0000
@<TRIPOS>BOND
     1     1     5   ar
     2     1     6   ar
     3     1     2    1
     4     3     8   ar
     5     3     9   ar
     6     3     4    1
     7     5     9   ar
     8     5    11    1
     9     6     8   ar
    10     6     7    1
    11     8    12    1
    12     9    10    1
    13    11    20    2
    14    11    23    1
    15    13    14    1
    16    13    23   am
    17    13    24    1
    18    14    31    1
    19    14    34    1
    20    14    15    1
    21    16    24    1
    22    16    17    1
    23    16    18    1
    24    16    19    1
    25    20    21    1
    26    20    24    1
    27    21    40   ar
    28    21    45   ar
    29    22    23    2
    30    25    34    1
    31    25    37    1
    32    25    26    1
    33    25    27    1
    34    28    31    1
    35    28    37    1
    36    28    29    1
    37    28    30    1
    38    31    32    1
    39    31    33    1
    40    34    35    1
    41    34    36    1
    42    37    38    1
    43    37    39    1
    44    40    47   ar
    45    41    45   ar
    46    41    48   ar
    47    41    42    1
    48    43    47    1
    49    43    49    1
    50    43    44    1
    51    45    46    1
    52    47    48   ar
    53    49    51    1
    54    49    52    1
    55    49    50    1
    56    51    58   ar
    57    51    60   ar
    58    52    53    1
    59    52    54    1
    60    52    55    1
    61    56    62   ar
    62    56    64   ar
    63    56    57    1
    64    58    64   ar
    65    58    59    1
    66    60    62   ar
    67    60    61    1
    68    62    63    1
    69    64    65    1
@<TRIPOS>SUBSTRUCTURE
     1 RES1        1 GROUP             0 ****  ****    0  
@<TRIPOS>MOLECULE
LIGAND_00362
    65    69     1     0     0
SMALL
USER_CHARGES
****
Generated from the CSD

@<TRIPOS>ATOM
     1 C1      -3.0248  -3.8117 -15.3691   C.ar      1 RES1   0.0000
     2 H2      -3.8579  -4.2218 -14.8086   H         1 RES1   0.0000
     3 C3      -0.9094  -2.7260 -16.7756   C.ar      1 RES1   0.0000
     4 H4      -0.0813  -2.2894 -17.3241   H         1 RES1   0.0000
     5 C5      -1.8085  -4.4880 -15.3803   C.ar      1 RES1   0.0000
     6 C6      -3.1929  -2.6215 -16.0545   C.ar      1 RES1   0.0000
     7 H7      -4.1477  -2.1065 -16.0477   H         1 RES1   0.0000
     8 C8      -2.1271  -2.1087 -16.7387   C.ar      1 RES1   0.0000
     9 C9      -0.7584  -3.9218 -16.0977   C.ar      1 RES1   0.0000
    10 H10      0.2005  -4.4262 -16.1329   H         1 RES1   0.0000
    11 C11     -1.6101  -5.7761 -14.6397   C.2       1 RES1   0.0000
    12 F12     -2.2837  -0.9357 -17.4105   F         1 RES1   0.0000
    13 N13     -1.2406  -7.9410 -14.1570   N.am      1 RES1   0.0000
    14 C14     -1.5106  -9.4109 -14.3092   C.3       1 RES1   0.0000
    15 H15     -1.2170  -9.7059 -15.3155   H         1 RES1   0.0000
    16 C16     -0.8997  -7.6987 -11.7768   C.3       1 RES1   0.0000
    17 H17     -1.4822  -8.4146 -11.2005   H         1 RES1   0.0000
    18 H18      0.0444  -8.1684 -12.0450   H         1 RES1   0.0000
    19 H19     -0.6844  -6.8442 -11.1388   H         1 RES1   0.0000
    20 C20     -1.7513  -5.9390 -13.3057   C.2       1 RES1   0.0000
    21 C21     -2.0254  -4.9138 -12.2663   C.ar      1 RES1   0.0000
    22 O22     -1.1751  -7.3947 -16.3880   O.2       1 RES1   0.0000
    23 C23     -1.3018  -7.0544 -15.2191   C.2       1 RES1   0.0000
    24 N24     -1.6302  -7.2794 -12.9734   N.3       1 RES1   0.0000
    25 C25     -0.9161 -11.7077 -13.4736   C.3       1 RES1   0.0000
    26 H26     -0.3416 -12.2498 -12.7240   H         1 RES1   0.0000
    27 H27     -0.6031 -12.0220 -14.4681   H         1 RES1   0.0000
    28 C28     -3.2233 -11.2474 -14.2590   C.3       1 RES1   0.0000
    29 H29     -2.9784 -11.5605 -15.2729   H         1 RES1   0.0000
    30 H30     -4.2711 -11.4636 -14.0555   H         1 RES1   0.0000
    31 C31     -2.9880  -9.7502 -14.1283   C.3       1 RES1   0.0000
    32 H32     -3.5685  -9.2306 -14.8892   H         1 RES1   0.0000
    33 H33     -3.3099  -9.4240 -13.1404   H         1 RES1   0.0000
    34 C34     -0.6733 -10.2168 -13.3153   C.3       1 RES1   0.0000
    35 H35     -0.9405  -9.9191 -12.3024   H         1 RES1   0.0000
    36 H36      0.3815 -10.0085 -13.4886   H         1 RES1   0.0000
    37 N37     -2.3710 -12.0022 -13.2939   N.4       1 RES1   1.0000
    38 H38     -2.6418 -11.7466 -12.3496   H         1 RES1   0.0000
    39 H39     -2.5226 -12.9962 -13.4321   H         1 RES1   0.0000
    40 N40     -3.1488  -5.0691 -11.5482   N.ar      1 RES1   0.0000
    41 C41     -1.5487  -2.9443 -11.0618   C.ar      1 RES1   0.0000
    42 H42     -0.8989  -2.0972 -10.8681   H         1 RES1   0.0000
    43 N43     -4.5543  -4.2769  -9.9188   N.pl3     1 RES1   0.0000
    44 H44     -4.7463  -3.6008  -9.1796   H         1 RES1   0.0000
    45 C45     -1.1781  -3.8376 -12.0468   C.ar      1 RES1   0.0000
    46 H46     -0.2689  -3.7025 -12.6231   H         1 RES1   0.0000
    47 C47     -3.4203  -4.1344 -10.6232   C.ar      1 RES1   0.0000
    48 N48     -2.6660  -3.0643 -10.3331   N.ar      1 RES1   0.0000
    49 C49     -5.5007  -5.3770 -10.1025   C.3       1 RES1   0.0000
    50 H50     -5.4306  -5.7322 -11.1424   H         1 RES1   0.0000
    51 C51     -6.9324  -4.9593  -9.8306   C.ar      1 RES1   0.0000
    52 C52     -5.0793  -6.5094  -9.1734   C.3       1 RES1   0.0000
    53 H53     -5.5024  -7.4564  -9.5020   H         1 RES1   0.0000
    54 H54     -3.9963  -6.6113  -9.1529   H         1 RES1   0.0000
    55 H55     -5.4209  -6.3204  -8.1579   H         1 RES1   0.0000
    56 C56     -9.5666  -4.2062  -9.3264   C.ar      1 RES1   0.0000
    57 H57    -10.5924  -3.9125  -9.1294   H         1 RES1   0.0000
    58 C58     -7.8592  -5.8830  -9.3691   C.ar      1 RES1   0.0000
    59 H59     -7.5542  -6.9109  -9.2032   H         1 RES1   0.0000
    60 C60     -7.3486  -3.6513 -10.0377   C.ar      1 RES1   0.0000
    61 H61     -6.6422  -2.9117 -10.3999   H         1 RES1   0.0000
    62 C62     -8.6582  -3.2783  -9.7863   C.ar      1 RES1   0.0000
    63 H63     -8.9692  -2.2523  -9.9522   H         1 RES1   0.0000
    64 C64     -9.1680  -5.5081  -9.1176   C.ar      1 RES1   0.0000
    65 H65     -9.8808  -6.2414  -8.7553   H         1 RES1   0.0000
@<TRIPOS>BOND
     1     1     5   ar
     2     1     6   ar
     3     1     2    1
     4     3     8   ar
     5     3     9   ar
     6     3     4    1
     7     5     9   ar
     8     5    11    1
     9     6     8   ar
    10     6     7    1
    11     8    12    1
    12     9    10    1
    13    11    20    2
    14    11    23    1
    15    13    14    1
    16    13    23   am
    17    13    24    1
    18    14    31    1
    19    14    34    1
    20    14    15    1
    21    16    24    1
    22    16    17    1
    23    16    18    1
    24    16    19    1
    25    20    21    1
    26    20    24    1
    27    21    40   ar
    28    21    45   ar
    29    22    23    2
    30    25    34    1
    31    25    37    1
    32    25    26    1
    33    25    27    1
    34    28    31    1
    35    28    37    1
    36    28    29    1
    37    28    30    1
    38    31    32    1
    39    31    33    1
    40    34    35    1
    41    34    36    1
    42    37    38    1
    43    37    39    1
    44    40    47   ar
    45    41    45   ar
    46    41    48   ar
    47    41    42    1
    48    43    47    1
    49    43    49    1
    50    43    44    1
    51    45    46    1
    52    47    48   ar
    53    49    51    1
    54    49    52    1
    55    49    50    1
    56    51    58   ar
    57    51    60   ar
    58    52    53    1
    59    52    54    1
    60    52    55    1
    61    56    62   ar
    62    56    64   ar
    63    56    57    1
    64    58    64   ar
    65    58    59    1
    66    60    62   ar
    67    60    61    1
    68    62    63    1
    69    64    65    1
@<TRIPOS>SUBSTRUCTURE
     1 RES1        1 GROUP             0 ****  ****    0  
@<TRIPOS>MOLECULE
LIGAND_00363
    65    69     1     0     0
SMALL
USER_CHARGES
****
Generated from the CSD

@<TRIPOS>ATOM
     1 C1      -1.1723  -3.5258 -12.8098   C.ar      1 RES1   0.0000
     2 H2      -0.2611  -3.9111 -12.3651   H         1 RES1   0.0000
     3 C3      -3.4698  -2.5063 -13.9560   C.ar      1 RES1   0.0000
     4 H4      -4.3669  -2.0961 -14.4079   H         1 RES1   0.0000
     5 C5      -1.9036  -4.3310 -13.6779   C.ar      1 RES1   0.0000
     6 C6      -1.5802  -2.2392 -12.5055   C.ar      1 RES1   0.0000
     7 H7      -1.0086  -1.6224 -11.8201   H         1 RES1   0.0000
     8 C8      -2.7195  -1.7626 -13.0905   C.ar      1 RES1   0.0000
     9 C9      -3.0585  -3.7954 -14.2411   C.ar      1 RES1   0.0000
    10 H10     -3.6553  -4.3981 -14.9161   H         1 RES1   0.0000
    11 C11     -1.4722  -5.7253 -14.0200   C.2       1 RES1   0.0000
    12 F12     -3.1238  -0.4960 -12.8000   F         1 RES1   0.0000
    13 N13     -1.2482  -7.9439 -14.1861   N.am      1 RES1   0.0000
    14 C14     -1.5354  -9.4068 -14.3706   C.3       1 RES1   0.0000
    15 H15     -1.1515  -9.7063 -15.3447   H         1 RES1   0.0000
    16 C16      1.1313  -8.0355 -14.7656   C.3       1 RES1   0.0000
    17 H17      1.8447  -7.5858 -15.4532   H         1 RES1   0.0000
    18 H18      1.5514  -7.9880 -13.7631   H         1 RES1   0.0000
    19 H19      1.0139  -9.0830 -15.0351   H         1 RES1   0.0000
    20 C20     -0.2822  -5.9961 -14.6126   C.2       1 RES1   0.0000
    21 C21      0.7971  -5.0460 -14.9858   C.ar      1 RES1   0.0000
    22 O22     -3.2395  -7.2220 -13.2722   O.2       1 RES1   0.0000
    23 C23     -2.1403  -6.9737 -13.7501   C.2       1 RES1   0.0000
    24 N24     -0.1545  -7.3395 -14.8239   N.3       1 RES1   0.0000
    25 C25     -1.0783 -11.7186 -13.4911   C.3       1 RES1   0.0000
    26 H26     -0.5925 -12.2756 -12.6913   H         1 RES1   0.0000
    27 H27     -0.6767 -12.0379 -14.4517   H         1 RES1   0.0000
    28 C28     -3.2864 -11.2032 -14.4965   C.3       1 RES1   0.0000
    29 H29     -2.9506 -11.5196 -15.4829   H         1 RES1   0.0000
    30 H30     -4.3537 -11.3955 -14.3975   H         1 RES1   0.0000
    31 C31     -3.0308  -9.7121 -14.3366   C.3       1 RES1   0.0000
    32 H32     -3.5220  -9.1775 -15.1484   H         1 RES1   0.0000
    33 H33     -3.4404  -9.3807 -13.3836   H         1 RES1   0.0000
    34 C34     -0.8181 -10.2341 -13.3031   C.3       1 RES1   0.0000
    35 H35     -1.1764  -9.9325 -12.3200   H         1 RES1   0.0000
    36 H36      0.2530 -10.0499 -13.3714   H         1 RES1   0.0000
    37 N37     -2.5502 -11.9796 -13.4560   N.4       1 RES1   1.0000
    38 H38     -2.9063 -11.7200 -12.5416   H         1 RES1   0.0000
    39 H39     -2.7102 -12.9696 -13.6128   H         1 RES1   0.0000
    40 N40      1.9851  -5.2175 -14.3852   N.ar      1 RES1   0.0000
    41 C41      1.6736  -3.1942 -16.1517   C.ar      1 RES1   0.0000
    42 H42      1.5430  -2.3880 -16.8661   H         1 RES1   0.0000
    43 N43      4.1435  -4.5061 -14.0794   N.pl3     1 RES1   0.0000
    44 H44      4.8913  -3.8502 -14.3053   H         1 RES1   0.0000
    45 C45      0.5972  -4.0204 -15.8982   C.ar      1 RES1   0.0000
    46 H46     -0.3598  -3.8727 -16.3876   H         1 RES1   0.0000
    47 C47      2.9609  -4.3488 -14.6953   C.ar      1 RES1   0.0000
    48 N48      2.8693  -3.3315 -15.5642   N.ar      1 RES1   0.0000
    49 C49      4.4463  -5.5963 -13.1524   C.3       1 RES1   0.0000
    50 H50      3.6563  -5.6375 -12.3866   H         1 RES1   0.0000
    51 C51      5.7816  -5.4110 -12.4588   C.ar      1 RES1   0.0000
    52 C52      4.4220  -6.8977 -13.9455   C.3       1 RES1   0.0000
    53 H53      4.6446  -7.7463 -13.3021   H         1 RES1   0.0000
    54 H54      3.4441  -7.0600 -14.3940   H         1 RES1   0.0000
    55 H55      5.1611  -6.8751 -14.7436   H         1 RES1   0.0000
    56 C56      8.2424  -5.0706 -11.1981   C.ar      1 RES1   0.0000
    57 H57      9.2006  -4.9373 -10.7070   H         1 RES1   0.0000
    58 C58      6.9533  -5.3321 -13.1978   C.ar      1 RES1   0.0000
    59 H59      6.9104  -5.4043 -14.2795   H         1 RES1   0.0000
    60 C60      5.8639  -5.3190 -11.0762   C.ar      1 RES1   0.0000
    61 H61      4.9614  -5.3798 -10.4772   H         1 RES1   0.0000
    62 C62      7.0877  -5.1494 -10.4509   C.ar      1 RES1   0.0000
    63 H63      7.1368  -5.0784  -9.3695   H         1 RES1   0.0000
    64 C64      8.1759  -5.1618 -12.5710   C.ar      1 RES1   0.0000
    65 H65      9.0833  -5.1000 -13.1625   H         1 RES1   0.0000
@<TRIPOS>BOND
     1     1     5   ar
     2     1     6   ar
     3     1     2    1
     4     3     8   ar
     5     3     9   ar
     6     3     4    1
     7     5     9   ar
     8     5    11    1
     9     6     8   ar
    10     6     7    1
    11     8    12    1
    12     9    10    1
    13    11    20    2
    14    11    23    1
    15    13    14    1
    16    13    23   am
    17    13    24    1
    18    14    31    1
    19    14    34    1
    20    14    15    1
    21    16    24    1
    22    16    17    1
    23    16    18    1
    24    16    19    1
    25    20    21    1
    26    20    24    1
    27    21    40   ar
    28    21    45   ar
    29    22    23    2
    30    25    34    1
    31    25    37    1
    32    25    26    1
    33    25    27    1
    34    28    31    1
    35    28    37    1
    36    28    29    1
    37    28    30    1
    38    31    32    1
    39    31    33    1
    40    34    35    1
    41    34    36    1
    42    37    38    1
    43    37    39    1
    44    40    47   ar
    45    41    45   ar
    46    41    48   ar
    47    41    42    1
    48    43    47    1
    49    43    49    1
    50    43    44    1
    51    45    46    1
    52    47    48   ar
    53    49    51    1
    54    49    52    1
    55    49    50    1
    56    51    58   ar
    57    51    60   ar
    58    52    53    1
    59    52    54    1
    60    52    55    1
    61    56    62   ar
    62    56    64   ar
    63    56    57    1
    64    58    64   ar
    65    58    59    1
    66    60    62   ar
    67    60    61    1
    68    62    63    1
    69    64    65    1
@<TRIPOS>SUBSTRUCTURE
     1 RES1        1 GROUP             0 ****  ****    0  
@<TRIPOS>MOLECULE
LIGAND_00364
    65    69     1     0     0
SMALL
USER_CHARGES
****
Generated from the CSD

@<TRIPOS>ATOM
     1 C1      -2.2540  -3.9065 -12.4699   C.ar      1 RES1   0.0000
     2 H2      -2.1705  -4.6092 -11.6479   H         1 RES1   0.0000
     3 C3      -2.4413  -2.0861 -14.5393   C.ar      1 RES1   0.0000
     4 H4      -2.5102  -1.3632 -15.3456   H         1 RES1   0.0000
     5 C5      -1.9397  -4.3224 -13.7602   C.ar      1 RES1   0.0000
     6 C6      -2.6663  -2.6112 -12.2114   C.ar      1 RES1   0.0000
     7 H7      -2.9184  -2.2990 -11.2035   H         1 RES1   0.0000
     8 C8      -2.7464  -1.7335 -13.2556   C.ar      1 RES1   0.0000
     9 C9      -2.0437  -3.3873 -14.7862   C.ar      1 RES1   0.0000
    10 H10     -1.8130  -3.6801 -15.8041   H         1 RES1   0.0000
    11 C11     -1.4881  -5.7210 -14.0551   C.2       1 RES1   0.0000
    12 F12     -3.1459  -0.4564 -13.0080   F         1 RES1   0.0000
    13 N13     -1.2406  -7.9410 -14.1570   N.am      1 RES1   0.0000
    14 C14     -1.5106  -9.4109 -14.3092   C.3       1 RES1   0.0000
    15 H15     -1.1008  -9.7324 -15.2656   H         1 RES1   0.0000
    16 C16      1.1525  -8.0254 -14.6787   C.3       1 RES1   0.0000
    17 H17      1.8517  -7.6458 -15.4209   H         1 RES1   0.0000
    18 H18      1.5894  -7.8744 -13.6937   H         1 RES1   0.0000
    19 H19      1.0359  -9.0953 -14.8379   H         1 RES1   0.0000
    20 C20     -0.2822  -5.9961 -14.6126   C.2       1 RES1   0.0000
    21 C21      0.7971  -5.0460 -14.9858   C.ar      1 RES1   0.0000
    22 O22     -3.2591  -7.2142 -13.3089   O.2       1 RES1   0.0000
    23 C23     -2.1513  -6.9682 -13.7677   C.2       1 RES1   0.0000
    24 N24     -0.1378  -7.3433 -14.7851   N.3       1 RES1   0.0000
    25 C25     -1.0544 -11.6943 -13.3579   C.3       1 RES1   0.0000
    26 H26     -0.5830 -12.2253 -12.5322   H         1 RES1   0.0000
    27 H27     -0.6271 -12.0351 -14.2998   H         1 RES1   0.0000
    28 C28     -3.2422 -11.2264 -14.4287   C.3       1 RES1   0.0000
    29 H29     -2.8801 -11.5656 -15.3980   H         1 RES1   0.0000
    30 H30     -4.3099 -11.4260 -14.3498   H         1 RES1   0.0000
    31 C31     -3.0036  -9.7293 -14.3025   C.3       1 RES1   0.0000
    32 H32     -3.4799  -9.2210 -15.1396   H         1 RES1   0.0000
    33 H33     -3.4388  -9.3767 -13.3686   H         1 RES1   0.0000
    34 C34     -0.8118 -10.2029 -13.2034   C.3       1 RES1   0.0000
    35 H35     -1.1961  -9.8789 -12.2374   H         1 RES1   0.0000
    36 H36      0.2590 -10.0105 -13.2512   H         1 RES1   0.0000
    37 N37     -2.5243 -11.9681 -13.3507   N.4       1 RES1   1.0000
    38 H38     -2.9044 -11.6878 -12.4523   H         1 RES1   0.0000
    39 H39     -2.6719 -12.9633 -13.4848   H         1 RES1   0.0000
    40 N40      1.1551  -5.0187 -16.2791   N.ar      1 RES1   0.0000
    41 C41      2.4200  -3.4011 -14.5199   C.ar      1 RES1   0.0000
    42 H42      2.9191  -2.7504 -13.8094   H         1 RES1   0.0000
    43 N43      2.5212  -4.1693 -17.9134   N.pl3     1 RES1   0.0000
    44 H44      2.0529  -4.8106 -18.5535   H         1 RES1   0.0000
    45 C45      1.4212  -4.2314 -14.0525   C.ar      1 RES1   0.0000
    46 H46      1.1400  -4.2475 -13.0047   H         1 RES1   0.0000
    47 C47      2.1475  -4.1824 -16.6239   C.ar      1 RES1   0.0000
    48 N48      2.8078  -3.3547 -15.8010   N.ar      1 RES1   0.0000
    49 C49      3.6010  -3.3383 -18.4454   C.3       1 RES1   0.0000
    50 H50      3.4000  -2.2883 -18.1823   H         1 RES1   0.0000
    51 C51      3.7220  -3.4435 -19.9530   C.ar      1 RES1   0.0000
    52 C52      4.8948  -3.7701 -17.7651   C.3       1 RES1   0.0000
    53 H53      5.7192  -3.7818 -18.4750   H         1 RES1   0.0000
    54 H54      5.1535  -3.0894 -16.9567   H         1 RES1   0.0000
    55 H55      4.7940  -4.7695 -17.3470   H         1 RES1   0.0000
    56 C56      3.9468  -3.6520 -22.7218   C.ar      1 RES1   0.0000
    57 H57      4.0337  -3.7331 -23.8002   H         1 RES1   0.0000
    58 C58      3.9815  -4.6666 -20.5543   C.ar      1 RES1   0.0000
    59 H59      4.0986  -5.5523 -19.9386   H         1 RES1   0.0000
    60 C60      3.5794  -2.3251 -20.7628   C.ar      1 RES1   0.0000
    61 H61      3.3779  -1.3576 -20.3152   H         1 RES1   0.0000
    62 C62      3.6910  -2.4303 -22.1389   C.ar      1 RES1   0.0000
    63 H63      3.5765  -1.5477 -22.7594   H         1 RES1   0.0000
    64 C64      4.0921  -4.7701 -21.9305   C.ar      1 RES1   0.0000
    65 H65      4.2934  -5.7338 -22.3862   H         1 RES1   0.0000
@<TRIPOS>BOND
     1     1     5   ar
     2     1     6   ar
     3     1     2    1
     4     3     8   ar
     5     3     9   ar
     6     3     4    1
     7     5     9   ar
     8     5    11    1
     9     6     8   ar
    10     6     7    1
    11     8    12    1
    12     9    10    1
    13    11    20    2
    14    11    23    1
    15    13    14    1
    16    13    23   am
    17    13    24    1
    18    14    31    1
    19    14    34    1
    20    14    15    1
    21    16    24    1
    22    16    17    1
    23    16    18    1
    24    16    19    1
    25    20    21    1
    26    20    24    1
    27    21    40   ar
    28    21    45   ar
    29    22    23    2
    30    25    34    1
    31    25    37    1
    32    25    26    1
    33    25    27    1
    34    28    31    1
    35    28    37    1
    36    28    29    1
    37    28    30    1
    38    31    32    1
    39    31    33    1
    40    34    35    1
    41    34    36    1
    42    37    38    1
    43    37    39    1
    44    40    47   ar
    45    41    45   ar
    46    41    48   ar
    47    41    42    1
    48    43    47    1
    49    43    49    1
    50    43    44    1
    51    45    46    1
    52    47    48   ar
    53    49    51    1
    54    49    52    1
    55    49    50    1
    56    51    58   ar
    57    51    60   ar
    58    52    53    1
    59    52    54    1
    60    52    55    1
    61    56    62   ar
    62    56    64   ar
    63    56    57    1
    64    58    64   ar
    65    58    59    1
    66    60    62   ar
    67    60    61    1
    68    62    63    1
    69    64    65    1
@<TRIPOS>SUBSTRUCTURE
     1 RES1        1 GROUP             0 ****  ****    0  
@<TRIPOS>MOLECULE
LIGAND_00365
    65    69     1     0     0
SMALL
USER_CHARGES
****
Generated from the CSD

@<TRIPOS>ATOM
     1 C1      -1.2040  -3.5066 -12.8528   C.ar      1 RES1   0.0000
     2 H2      -0.2964  -3.8819 -12.3925   H         1 RES1   0.0000
     3 C3      -3.4927  -2.5127 -14.0385   C.ar      1 RES1   0.0000
     4 H4      -4.3863  -2.1126 -14.5061   H         1 RES1   0.0000
     5 C5      -1.9217  -4.3264 -13.7186   C.ar      1 RES1   0.0000
     6 C6      -1.6212  -2.2180 -12.5701   C.ar      1 RES1   0.0000
     7 H7      -1.0603  -1.5897 -11.8863   H         1 RES1   0.0000
     8 C8      -2.7558  -1.7543 -13.1743   C.ar      1 RES1   0.0000
     9 C9      -3.0724  -3.8035 -14.3020   C.ar      1 RES1   0.0000
    10 H10     -3.6587  -4.4178 -14.9759   H         1 RES1   0.0000
    11 C11     -1.4802  -5.7231 -14.0374   C.2       1 RES1   0.0000
    12 F12     -3.1690  -0.4860 -12.9052   F         1 RES1   0.0000
    13 N13     -1.2443  -7.9426 -14.1717   N.am      1 RES1   0.0000
    14 C14     -1.5229  -9.4091 -14.3403   C.3       1 RES1   0.0000
    15 H15     -1.1262  -9.7195 -15.3057   H         1 RES1   0.0000
    16 C16      1.1421  -8.0308 -14.7226   C.3       1 RES1   0.0000
    17 H17      1.8311  -7.6513 -15.4743   H         1 RES1   0.0000
    18 H18      1.5958  -7.8868 -13.7442   H         1 RES1   0.0000
    19 H19      1.0173  -9.0993 -14.8849   H         1 RES1   0.0000
    20 C20     -0.2822  -5.9961 -14.6126   C.2       1 RES1   0.0000
    21 C21      0.7971  -5.0460 -14.9858   C.ar      1 RES1   0.0000
    22 O22     -3.2493  -7.2180 -13.2903   O.2       1 RES1   0.0000
    23 C23     -2.1458  -6.9709 -13.7588   C.2       1 RES1   0.0000
    24 N24     -0.1461  -7.3415 -14.8048   N.3       1 RES1   0.0000
    25 C25     -1.0660 -11.7070 -13.4251   C.3       1 RES1   0.0000
    26 H26     -0.5872 -12.2512 -12.6124   H         1 RES1   0.0000
    27 H27     -0.6517 -12.0370 -14.3766   H         1 RES1   0.0000
    28 C28     -3.2643 -11.2150 -14.4631   C.3       1 RES1   0.0000
    29 H29     -2.9155 -11.5428 -15.4412   H         1 RES1   0.0000
    30 H30     -4.3319 -11.4108 -14.3740   H         1 RES1   0.0000
    31 C31     -3.0173  -9.7208 -14.3199   C.3       1 RES1   0.0000
    32 H32     -3.5012  -9.1991 -15.1443   H         1 RES1   0.0000
    33 H33     -3.4396  -9.3788 -13.3761   H         1 RES1   0.0000
    34 C34     -0.8147 -10.2190 -13.2537   C.3       1 RES1   0.0000
    35 H35     -1.1858  -9.9062 -12.2788   H         1 RES1   0.0000
    36 H36      0.2564 -10.0308 -13.3118   H         1 RES1   0.0000
    37 N37     -2.5370 -11.9743 -13.4038   N.4       1 RES1   1.0000
    38 H38     -2.9050 -11.7044 -12.4972   H         1 RES1   0.0000
    39 H39     -2.6908 -12.9670 -13.5495   H         1 RES1   0.0000
    40 N40      1.9851  -5.2175 -14.3852   N.ar      1 RES1   0.0000
    41 C41      1.6736  -3.1942 -16.1517   C.ar      1 RES1   0.0000
    42 H42      1.5430  -2.3880 -16.8661   H         1 RES1   0.0000
    43 N43      4.1435  -4.5061 -14.0794   N.pl3     1 RES1   0.0000
    44 H44      4.2294  -5.2559 -13.3933   H         1 RES1   0.0000
    45 C45      0.5972  -4.0204 -15.8982   C.ar      1 RES1   0.0000
    46 H46     -0.3598  -3.8727 -16.3876   H         1 RES1   0.0000
    47 C47      2.9609  -4.3488 -14.6953   C.ar      1 RES1   0.0000
    48 N48      2.8693  -3.3315 -15.5642   N.ar      1 RES1   0.0000
    49 C49      5.2971  -3.6304 -14.2842   C.3       1 RES1   0.0000
    50 H50      5.5244  -3.5928 -15.3608   H         1 RES1   0.0000
    51 C51      6.5297  -4.1166 -13.5474   C.ar      1 RES1   0.0000
    52 C52      4.9041  -2.2322 -13.8219   C.3       1 RES1   0.0000
    53 H53      5.7818  -1.6636 -13.5219   H         1 RES1   0.0000
    54 H54      4.4035  -1.6868 -14.6193   H         1 RES1   0.0000
    55 H55      4.2278  -2.2847 -12.9712   H         1 RES1   0.0000
    56 C56      8.7869  -5.0088 -12.1801   C.ar      1 RES1   0.0000
    57 H57      9.6659  -5.3570 -11.6478   H         1 RES1   0.0000
    58 C58      6.5164  -4.2515 -12.1666   C.ar      1 RES1   0.0000
    59 H59      5.6162  -4.0061 -11.6129   H         1 RES1   0.0000
    60 C60      7.6948  -4.4341 -14.2320   C.ar      1 RES1   0.0000
    61 H61      7.7296  -4.3347 -15.3118   H         1 RES1   0.0000
    62 C62      8.8159  -4.8778 -13.5511   C.ar      1 RES1   0.0000
    63 H63      9.7193  -5.1229 -14.0995   H         1 RES1   0.0000
    64 C64      7.6380  -4.6960 -11.4875   C.ar      1 RES1   0.0000
    65 H65      7.6117  -4.7982 -10.4077   H         1 RES1   0.0000
@<TRIPOS>BOND
     1     1     5   ar
     2     1     6   ar
     3     1     2    1
     4     3     8   ar
     5     3     9   ar
     6     3     4    1
     7     5     9   ar
     8     5    11    1
     9     6     8   ar
    10     6     7    1
    11     8    12    1
    12     9    10    1
    13    11    20    2
    14    11    23    1
    15    13    14    1
    16    13    23   am
    17    13    24    1
    18    14    31    1
    19    14    34    1
    20    14    15    1
    21    16    24    1
    22    16    17    1
    23    16    18    1
    24    16    19    1
    25    20    21    1
    26    20    24    1
    27    21    40   ar
    28    21    45   ar
    29    22    23    2
    30    25    34    1
    31    25    37    1
    32    25    26    1
    33    25    27    1
    34    28    31    1
    35    28    37    1
    36    28    29    1
    37    28    30    1
    38    31    32    1
    39    31    33    1
    40    34    35    1
    41    34    36    1
    42    37    38    1
    43    37    39    1
    44    40    47   ar
    45    41    45   ar
    46    41    48   ar
    47    41    42    1
    48    43    47    1
    49    43    49    1
    50    43    44    1
    51    45    46    1
    52    47    48   ar
    53    49    51    1
    54    49    52    1
    55    49    50    1
    56    51    58   ar
    57    51    60   ar
    58    52    53    1
    59    52    54    1
    60    52    55    1
    61    56    62   ar
    62    56    64   ar
    63    56    57    1
    64    58    64   ar
    65    58    59    1
    66    60    62   ar
    67    60    61    1
    68    62    63    1
    69    64    65    1
@<TRIPOS>SUBSTRUCTURE
     1 RES1        1 GROUP             0 ****  ****    0  
@<TRIPOS>MOLECULE
LIGAND_00366
    65    69     1     0     0
SMALL
USER_CHARGES
****
Generated from the CSD

@<TRIPOS>ATOM
     1 C1      -1.7798  -4.0623 -11.8881   C.ar      1 RES1   0.0000
     2 H2      -1.5726  -4.8233 -11.1435   H         1 RES1   0.0000
     3 C3      -2.2777  -2.0955 -13.7631   C.ar      1 RES1   0.0000
     4 H4      -2.4672  -1.3158 -14.4933   H         1 RES1   0.0000
     5 C5      -1.7032  -4.3879 -13.2390   C.ar      1 RES1   0.0000
     6 C6      -2.1098  -2.7842 -11.4733   C.ar      1 RES1   0.0000
     7 H7      -2.1765  -2.5424 -10.4178   H         1 RES1   0.0000
     8 C8      -2.3479  -1.8327 -12.4247   C.ar      1 RES1   0.0000
     9 C9      -1.9602  -3.3802 -14.1643   C.ar      1 RES1   0.0000
    10 H10     -1.9159  -3.6016 -15.2246   H         1 RES1   0.0000
    11 C11     -1.3432  -5.7670 -13.7035   C.2       1 RES1   0.0000
    12 F12     -2.6676  -0.5721 -12.0240   F         1 RES1   0.0000
    13 N13     -1.2406  -7.9410 -14.1570   N.am      1 RES1   0.0000
    14 C14     -1.5106  -9.4109 -14.3092   C.3       1 RES1   0.0000
    15 H15     -1.0447  -9.7459 -15.2348   H         1 RES1   0.0000
    16 C16      0.7143  -7.9418 -15.7558   C.3       1 RES1   0.0000
    17 H17      1.7260  -7.5461 -15.6953   H         1 RES1   0.0000
    18 H18      0.7608  -9.0165 -15.5924   H         1 RES1   0.0000
    19 H19      0.3411  -7.7674 -16.7628   H         1 RES1   0.0000
    20 C20     -0.2418  -6.0006 -14.4889   C.2       1 RES1   0.0000
    21 C21      0.7886  -5.0317 -14.9429   C.ar      1 RES1   0.0000
    22 O22     -2.9925  -7.3272 -12.8737   O.2       1 RES1   0.0000
    23 C23     -1.9801  -7.0255 -13.4921   C.2       1 RES1   0.0000
    24 N24     -0.1527  -7.3024 -14.7653   N.pl3     1 RES1   0.0000
    25 C25     -1.1295 -11.6858 -13.3061   C.3       1 RES1   0.0000
    26 H26     -0.7136 -12.2102 -12.4470   H         1 RES1   0.0000
    27 H27     -0.6471 -12.0401 -14.2159   H         1 RES1   0.0000
    28 C28     -3.2437 -11.2171 -14.5153   C.3       1 RES1   0.0000
    29 H29     -2.8247 -11.5697 -15.4566   H         1 RES1   0.0000
    30 H30     -4.3155 -11.4094 -14.5005   H         1 RES1   0.0000
    31 C31     -3.0033  -9.7201 -14.3914   C.3       1 RES1   0.0000
    32 H32     -3.4235  -9.2187 -15.2620   H         1 RES1   0.0000
    33 H33     -3.4930  -9.3542 -13.4902   H         1 RES1   0.0000
    34 C34     -0.8868 -10.1943 -13.1535   C.3       1 RES1   0.0000
    35 H35     -1.3279  -9.8568 -12.2168   H         1 RES1   0.0000
    36 H36      0.1861 -10.0090 -13.1371   H         1 RES1   0.0000
    37 N37     -2.5988 -11.9507 -13.3868   N.4       1 RES1   1.0000
    38 H38     -3.0319 -11.6577 -12.5168   H         1 RES1   0.0000
    39 H39     -2.7446 -12.9465 -13.5187   H         1 RES1   0.0000
    40 N40      0.9280  -4.8774 -16.2689   N.ar      1 RES1   0.0000
    41 C41      2.5148  -3.4642 -14.5966   C.ar      1 RES1   0.0000
    42 H42      3.1441  -2.8959 -13.9196   H         1 RES1   0.0000
    43 N43      2.0292  -3.8838 -18.0178   N.pl3     1 RES1   0.0000
    44 H44      2.7124  -3.2034 -18.3504   H         1 RES1   0.0000
    45 C45      1.5830  -4.3247 -14.0521   C.ar      1 RES1   0.0000
    46 H46      1.4789  -4.4438 -12.9787   H         1 RES1   0.0000
    47 C47      1.8741  -4.0234 -16.6915   C.ar      1 RES1   0.0000
    48 N48      2.6862  -3.2925 -15.9138   N.ar      1 RES1   0.0000
    49 C49      1.2356  -4.6006 -19.0157   C.3       1 RES1   0.0000
    50 H50      0.2227  -4.7580 -18.6138   H         1 RES1   0.0000
    51 C51      1.8306  -5.9502 -19.3667   C.ar      1 RES1   0.0000
    52 C52      1.1352  -3.7133 -20.2509   C.3       1 RES1   0.0000
    53 H53      0.5250  -4.1861 -21.0176   H         1 RES1   0.0000
    54 H54      0.6852  -2.7541 -20.0036   H         1 RES1   0.0000
    55 H55      2.1213  -3.5264 -20.6709   H         1 RES1   0.0000
    56 C56      2.9124  -8.4323 -20.0216   C.ar      1 RES1   0.0000
    57 H57      3.3342  -9.3987 -20.2771   H         1 RES1   0.0000
    58 C58      1.2113  -6.7713 -20.2979   C.ar      1 RES1   0.0000
    59 H59      0.2946  -6.4428 -20.7763   H         1 RES1   0.0000
    60 C60      3.0007  -6.3950 -18.7667   C.ar      1 RES1   0.0000
    61 H61      3.5018  -5.7710 -18.0342   H         1 RES1   0.0000
    62 C62      3.5374  -7.6289 -19.0935   C.ar      1 RES1   0.0000
    63 H63      4.4529  -7.9632 -18.6170   H         1 RES1   0.0000
    64 C64      1.7499  -8.0044 -20.6240   C.ar      1 RES1   0.0000
    65 H65      1.2550  -8.6346 -21.3555   H         1 RES1   0.0000
@<TRIPOS>BOND
     1     1     5   ar
     2     1     6   ar
     3     1     2    1
     4     3     8   ar
     5     3     9   ar
     6     3     4    1
     7     5     9   ar
     8     5    11    1
     9     6     8   ar
    10     6     7    1
    11     8    12    1
    12     9    10    1
    13    11    20    2
    14    11    23    1
    15    13    14    1
    16    13    23   am
    17    13    24    1
    18    14    31    1
    19    14    34    1
    20    14    15    1
    21    16    24    1
    22    16    17    1
    23    16    18    1
    24    16    19    1
    25    20    21    1
    26    20    24    1
    27    21    40   ar
    28    21    45   ar
    29    22    23    2
    30    25    34    1
    31    25    37    1
    32    25    26    1
    33    25    27    1
    34    28    31    1
    35    28    37    1
    36    28    29    1
    37    28    30    1
    38    31    32    1
    39    31    33    1
    40    34    35    1
    41    34    36    1
    42    37    38    1
    43    37    39    1
    44    40    47   ar
    45    41    45   ar
    46    41    48   ar
    47    41    42    1
    48    43    47    1
    49    43    49    1
    50    43    44    1
    51    45    46    1
    52    47    48   ar
    53    49    51    1
    54    49    52    1
    55    49    50    1
    56    51    58   ar
    57    51    60   ar
    58    52    53    1
    59    52    54    1
    60    52    55    1
    61    56    62   ar
    62    56    64   ar
    63    56    57    1
    64    58    64   ar
    65    58    59    1
    66    60    62   ar
    67    60    61    1
    68    62    63    1
    69    64    65    1
@<TRIPOS>SUBSTRUCTURE
     1 RES1        1 GROUP             0 ****  ****    0  
@<TRIPOS>MOLECULE
LIGAND_00367
    65    69     1     0     0
SMALL
USER_CHARGES
****
Generated from the CSD

@<TRIPOS>ATOM
     1 C1      -0.6743  -3.6023 -15.5507   C.ar      1 RES1   0.0000
     2 H2      -1.7131  -3.8037 -15.7889   H         1 RES1   0.0000
     3 C3       1.9592  -3.0479 -14.9268   C.ar      1 RES1   0.0000
     4 H4       2.9906  -2.8195 -14.6791   H         1 RES1   0.0000
     5 C5       0.0599  -4.5461 -14.8386   C.ar      1 RES1   0.0000
     6 C6      -0.1079  -2.4072 -15.9574   C.ar      1 RES1   0.0000
     7 H7      -0.6855  -1.6817 -16.5205   H         1 RES1   0.0000
     8 C8       1.1960  -2.1610 -15.6312   C.ar      1 RES1   0.0000
     9 C9       1.3852  -4.2444 -14.5380   C.ar      1 RES1   0.0000
    10 H10      1.9874  -4.9605 -13.9907   H         1 RES1   0.0000
    11 C11     -0.5410  -5.8434 -14.3880   C.2       1 RES1   0.0000
    12 F12      1.7579  -0.9852 -16.0232   F         1 RES1   0.0000
    13 N13     -1.2406  -7.9410 -14.1570   N.am      1 RES1   0.0000
    14 C14     -1.5106  -9.4109 -14.3092   C.3       1 RES1   0.0000
    15 H15     -1.0786  -9.7377 -15.2540   H         1 RES1   0.0000
    16 C16     -2.0882  -7.8386 -11.7803   C.3       1 RES1   0.0000
    17 H17     -2.6356  -7.1176 -11.1768   H         1 RES1   0.0000
    18 H18     -2.7554  -8.6685 -12.0043   H         1 RES1   0.0000
    19 H19     -1.2602  -8.2197 -11.1863   H         1 RES1   0.0000
    20 C20     -1.1594  -5.9688 -13.1688   C.2       1 RES1   0.0000
    21 C21     -1.4160  -4.9157 -12.1531   C.ar      1 RES1   0.0000
    22 O22     -0.1808  -7.5094 -16.1020   O.2       1 RES1   0.0000
    23 C23     -0.6007  -7.1206 -15.0199   C.2       1 RES1   0.0000
    24 N24     -1.5984  -7.2184 -13.0119   N.pl3     1 RES1   0.0000
    25 C25     -1.0834 -11.6911 -13.3370   C.3       1 RES1   0.0000
    26 H26     -0.6335 -12.2196 -12.4979   H         1 RES1   0.0000
    27 H27     -0.6343 -12.0371 -14.2668   H         1 RES1   0.0000
    28 C28     -3.2435 -11.2227 -14.4625   C.3       1 RES1   0.0000
    29 H29     -2.8589 -11.5671 -15.4214   H         1 RES1   0.0000
    30 H30     -4.3132 -11.4193 -14.4087   H         1 RES1   0.0000
    31 C31     -3.0042  -9.7256 -14.3373   C.3       1 RES1   0.0000
    32 H32     -3.4587  -9.2199 -15.1879   H         1 RES1   0.0000
    33 H33     -3.4609  -9.3678 -13.4157   H         1 RES1   0.0000
    34 C34     -0.8408 -10.1997 -13.1833   C.3       1 RES1   0.0000
    35 H35     -1.2475  -9.8704 -12.2283   H         1 RES1   0.0000
    36 H36      0.2313 -10.0101 -13.2060   H         1 RES1   0.0000
    37 N37     -2.5537 -11.9613 -13.3642   N.4       1 RES1   1.0000
    38 H38     -2.9548 -11.6760 -12.4765   H         1 RES1   0.0000
    39 H39     -2.7006 -12.9568 -13.4975   H         1 RES1   0.0000
    40 N40     -0.4619  -4.7249 -11.2286   N.ar      1 RES1   0.0000
    41 C41     -2.7124  -3.2288 -11.1379   C.ar      1 RES1   0.0000
    42 H42     -3.6155  -2.6280 -11.1111   H         1 RES1   0.0000
    43 N43      0.2500  -3.6161  -9.3518   N.pl3     1 RES1   0.0000
    44 H44      1.0463  -4.2535  -9.3484   H         1 RES1   0.0000
    45 C45     -2.5846  -4.1682 -12.1411   C.ar      1 RES1   0.0000
    46 H46     -3.3622  -4.3161 -12.8831   H         1 RES1   0.0000
    47 C47     -0.6941  -3.7933 -10.2898   C.ar      1 RES1   0.0000
    48 N48     -1.7846  -3.0185 -10.1952   N.ar      1 RES1   0.0000
    49 C49      0.1771  -2.6064  -8.2960   C.3       1 RES1   0.0000
    50 H50     -0.7430  -2.7708  -7.7140   H         1 RES1   0.0000
    51 C51      0.1537  -1.1944  -8.8473   C.ar      1 RES1   0.0000
    52 C52      1.3758  -2.8111  -7.3770   C.3       1 RES1   0.0000
    53 H53      1.3850  -2.0674  -6.5829   H         1 RES1   0.0000
    54 H54      1.3480  -3.7969  -6.9175   H         1 RES1   0.0000
    55 H55      2.3063  -2.7231  -7.9339   H         1 RES1   0.0000
    56 C56      0.1263   1.4003  -9.8609   C.ar      1 RES1   0.0000
    57 H57      0.1154   2.4105 -10.2564   H         1 RES1   0.0000
    58 C58      1.3381  -0.5343  -9.1414   C.ar      1 RES1   0.0000
    59 H59      2.2862  -1.0347  -8.9741   H         1 RES1   0.0000
    60 C60     -1.0456  -0.5311  -9.0674   C.ar      1 RES1   0.0000
    61 H61     -1.9846  -1.0263  -8.8433   H         1 RES1   0.0000
    62 C62     -1.0577   0.7585  -9.5717   C.ar      1 RES1   0.0000
    63 H63     -2.0028   1.2643  -9.7393   H         1 RES1   0.0000
    64 C64      1.3241   0.7548  -9.6462   C.ar      1 RES1   0.0000
    65 H65      2.2585   1.2573  -9.8731   H         1 RES1   0.0000
@<TRIPOS>BOND
     1     1     5   ar
     2     1     6   ar
     3     1     2    1
     4     3     8   ar
     5     3     9   ar
     6     3     4    1
     7     5     9   ar
     8     5    11    1
     9     6     8   ar
    10     6     7    1
    11     8    12    1
    12     9    10    1
    13    11    20    2
    14    11    23    1
    15    13    14    1
    16    13    23   am
    17    13    24    1
    18    14    31    1
    19    14    34    1
    20    14    15    1
    21    16    24    1
    22    16    17    1
    23    16    18    1
    24    16    19    1
    25    20    21    1
    26    20    24    1
    27    21    40   ar
    28    21    45   ar
    29    22    23    2
    30    25    34    1
    31    25    37    1
    32    25    26    1
    33    25    27    1
    34    28    31    1
    35    28    37    1
    36    28    29    1
    37    28    30    1
    38    31    32    1
    39    31    33    1
    40    34    35    1
    41    34    36    1
    42    37    38    1
    43    37    39    1
    44    40    47   ar
    45    41    45   ar
    46    41    48   ar
    47    41    42    1
    48    43    47    1
    49    43    49    1
    50    43    44    1
    51    45    46    1
    52    47    48   ar
    53    49    51    1
    54    49    52    1
    55    49    50    1
    56    51    58   ar
    57    51    60   ar
    58    52    53    1
    59    52    54    1
    60    52    55    1
    61    56    62   ar
    62    56    64   ar
    63    56    57    1
    64    58    64   ar
    65    58    59    1
    66    60    62   ar
    67    60    61    1
    68    62    63    1
    69    64    65    1
@<TRIPOS>SUBSTRUCTURE
     1 RES1        1 GROUP             0 ****  ****    0  
@<TRIPOS>MOLECULE
LIGAND_00368
    65    69     1     0     0
SMALL
USER_CHARGES
****
Generated from the CSD

@<TRIPOS>ATOM
     1 C1       1.6771  -4.5965 -12.5452   C.ar      1 RES1   0.0000
     2 H2       2.2034  -4.8033 -13.4708   H         1 RES1   0.0000
     3 C3       0.3409  -4.0242 -10.1960   C.ar      1 RES1   0.0000
     4 H4      -0.1813  -3.7885  -9.2746   H         1 RES1   0.0000
     5 C5       0.4604  -5.2241 -12.2950   C.ar      1 RES1   0.0000
     6 C6       2.2285  -3.7080 -11.6392   C.ar      1 RES1   0.0000
     7 H7       3.1822  -3.2310 -11.8388   H         1 RES1   0.0000
     8 C8       1.5422  -3.4435 -10.4875   C.ar      1 RES1   0.0000
     9 C9      -0.1926  -4.9207 -11.1036   C.ar      1 RES1   0.0000
    10 H10     -1.1390  -5.3972 -10.8743   H         1 RES1   0.0000
    11 C11     -0.1512  -6.1860 -13.2685   C.2       1 RES1   0.0000
    12 F12      2.0759  -2.5664  -9.5944   F         1 RES1   0.0000
    13 N13     -1.2406  -7.9410 -14.1570   N.am      1 RES1   0.0000
    14 C14     -1.5106  -9.4109 -14.3092   C.3       1 RES1   0.0000
    15 H15     -1.2158  -9.7062 -15.3151   H         1 RES1   0.0000
    16 C16     -1.3876  -7.1276 -16.4280   C.3       1 RES1   0.0000
    17 H17     -0.7384  -7.0978 -17.3006   H         1 RES1   0.0000
    18 H18     -2.0590  -7.9772 -16.5346   H         1 RES1   0.0000
    19 H19     -1.9875  -6.2200 -16.4198   H         1 RES1   0.0000
    20 C20     -0.0279  -6.1202 -14.6126   C.2       1 RES1   0.0000
    21 C21      0.6269  -5.0726 -15.4374   C.ar      1 RES1   0.0000
    22 O22     -1.1910  -7.8605 -11.8611   O.2       1 RES1   0.0000
    23 C23     -0.9103  -7.3619 -12.9432   C.2       1 RES1   0.0000
    24 N24     -0.6005  -7.2381 -15.1994   N.3       1 RES1   0.0000
    25 C25     -0.9174 -11.7076 -13.4724   C.3       1 RES1   0.0000
    26 H26     -0.3438 -12.2496 -12.7219   H         1 RES1   0.0000
    27 H27     -0.6032 -12.0222 -14.4665   H         1 RES1   0.0000
    28 C28     -3.2236 -11.2472 -14.2607   C.3       1 RES1   0.0000
    29 H29     -2.9775 -11.5606 -15.2741   H         1 RES1   0.0000
    30 H30     -4.2716 -11.4632 -14.0583   H         1 RES1   0.0000
    31 C31     -2.9882  -9.7500 -14.1300   C.3       1 RES1   0.0000
    32 H32     -3.5678  -9.2305 -14.8917   H         1 RES1   0.0000
    33 H33     -3.3113  -9.4235 -13.1426   H         1 RES1   0.0000
    34 C34     -0.6746 -10.2167 -13.3141   C.3       1 RES1   0.0000
    35 H35     -0.9429  -9.9187 -12.3017   H         1 RES1   0.0000
    36 H36      0.3804 -10.0085 -13.4862   H         1 RES1   0.0000
    37 N37     -2.3725 -12.0018 -13.2943   N.4       1 RES1   1.0000
    38 H38     -2.6444 -11.7461 -12.3505   H         1 RES1   0.0000
    39 H39     -2.5241 -12.9959 -13.4325   H         1 RES1   0.0000
    40 N40      1.6492  -5.4674 -16.2125   N.ar      1 RES1   0.0000
    41 C41      0.9175  -2.8643 -16.2094   C.ar      1 RES1   0.0000
    42 H42      0.6145  -1.8224 -16.2076   H         1 RES1   0.0000
    43 N43      3.3019  -4.9139 -17.7026   N.pl3     1 RES1   0.0000
    44 H44      3.5937  -5.8898 -17.6494   H         1 RES1   0.0000
    45 C45      0.2208  -3.7465 -15.4083   C.ar      1 RES1   0.0000
    46 H46     -0.6032  -3.4174 -14.7839   H         1 RES1   0.0000
    47 C47      2.2656  -4.5244 -16.9431   C.ar      1 RES1   0.0000
    48 N48      1.9469  -3.2225 -16.9876   N.ar      1 RES1   0.0000
    49 C49      4.0786  -4.0129 -18.5538   C.3       1 RES1   0.0000
    50 H50      4.1145  -3.0211 -18.0769   H         1 RES1   0.0000
    51 C51      3.4761  -3.8619 -19.9368   C.ar      1 RES1   0.0000
    52 C52      5.4975  -4.5634 -18.6364   C.3       1 RES1   0.0000
    53 H53      6.1107  -3.9533 -19.2962   H         1 RES1   0.0000
    54 H54      5.9659  -4.5765 -17.6545   H         1 RES1   0.0000
    55 H55      5.4930  -5.5804 -19.0230   H         1 RES1   0.0000
    56 C56      2.3773  -3.5967 -22.4829   C.ar      1 RES1   0.0000
    57 H57      1.9487  -3.4937 -23.4743   H         1 RES1   0.0000
    58 C58      3.8325  -4.7308 -20.9581   C.ar      1 RES1   0.0000
    59 H59      4.5480  -5.5227 -20.7626   H         1 RES1   0.0000
    60 C60      2.5611  -2.8554 -20.2135   C.ar      1 RES1   0.0000
    61 H61      2.2685  -2.1629 -19.4313   H         1 RES1   0.0000
    62 C62      2.0154  -2.7251 -21.4795   C.ar      1 RES1   0.0000
    63 H63      1.3008  -1.9340 -21.6810   H         1 RES1   0.0000
    64 C64      3.2854  -4.5994 -22.2231   C.ar      1 RES1   0.0000
    65 H65      3.5725  -5.2877 -23.0109   H         1 RES1   0.0000
@<TRIPOS>BOND
     1     1     5   ar
     2     1     6   ar
     3     1     2    1
     4     3     8   ar
     5     3     9   ar
     6     3     4    1
     7     5     9   ar
     8     5    11    1
     9     6     8   ar
    10     6     7    1
    11     8    12    1
    12     9    10    1
    13    11    20    2
    14    11    23    1
    15    13    14    1
    16    13    23   am
    17    13    24    1
    18    14    31    1
    19    14    34    1
    20    14    15    1
    21    16    24    1
    22    16    17    1
    23    16    18    1
    24    16    19    1
    25    20    21    1
    26    20    24    1
    27    21    40   ar
    28    21    45   ar
    29    22    23    2
    30    25    34    1
    31    25    37    1
    32    25    26    1
    33    25    27    1
    34    28    31    1
    35    28    37    1
    36    28    29    1
    37    28    30    1
    38    31    32    1
    39    31    33    1
    40    34    35    1
    41    34    36    1
    42    37    38    1
    43    37    39    1
    44    40    47   ar
    45    41    45   ar
    46    41    48   ar
    47    41    42    1
    48    43    47    1
    49    43    49    1
    50    43    44    1
    51    45    46    1
    52    47    48   ar
    53    49    51    1
    54    49    52    1
    55    49    50    1
    56    51    58   ar
    57    51    60   ar
    58    52    53    1
    59    52    54    1
    60    52    55    1
    61    56    62   ar
    62    56    64   ar
    63    56    57    1
    64    58    64   ar
    65    58    59    1
    66    60    62   ar
    67    60    61    1
    68    62    63    1
    69    64    65    1
@<TRIPOS>SUBSTRUCTURE
     1 RES1        1 GROUP             0 ****  ****    0  
@<TRIPOS>MOLECULE
LIGAND_00369
    65    69     1     0     0
SMALL
USER_CHARGES
****
Generated from the CSD

@<TRIPOS>ATOM
     1 C1      -1.3159  -3.4745 -12.9343   C.ar      1 RES1   0.0000
     2 H2      -0.4415  -3.8348 -12.4032   H         1 RES1   0.0000
     3 C3      -3.5191  -2.5189 -14.2998   C.ar      1 RES1   0.0000
     4 H4      -4.3790  -2.1338 -14.8378   H         1 RES1   0.0000
     5 C5      -1.9683  -4.3171 -13.8294   C.ar      1 RES1   0.0000
     6 C6      -1.7562  -2.1819 -12.7109   C.ar      1 RES1   0.0000
     7 H7      -1.2468  -1.5357 -12.0040   H         1 RES1   0.0000
     8 C8      -2.8471  -1.7376 -13.4035   C.ar      1 RES1   0.0000
     9 C9      -3.0769  -3.8132 -14.5038   C.ar      1 RES1   0.0000
    10 H10     -3.6124  -4.4453 -15.2029   H         1 RES1   0.0000
    11 C11     -1.5007  -5.7183 -14.0847   C.2       1 RES1   0.0000
    12 F12     -3.2826  -0.4656 -13.1929   F         1 RES1   0.0000
    13 N13     -1.2349  -7.9380 -14.1328   N.am      1 RES1   0.0000
    14 C14     -1.4910  -9.4129 -14.2577   C.3       1 RES1   0.0000
    15 H15     -1.0610  -9.7520 -15.1990   H         1 RES1   0.0000
    16 C16      1.1684  -8.0151 -14.6063   C.3       1 RES1   0.0000
    17 H17      1.9830  -7.3403 -14.8611   H         1 RES1   0.0000
    18 H18      1.3156  -8.3519 -13.5822   H         1 RES1   0.0000
    19 H19      1.2285  -8.8822 -15.2606   H         1 RES1   0.0000
    20 C20     -0.2822  -5.9961 -14.6126   C.2       1 RES1   0.0000
    21 C21      0.7971  -5.0460 -14.9858   C.ar      1 RES1   0.0000
    22 O22     -3.2748  -7.2086 -13.3400   O.2       1 RES1   0.0000
    23 C23     -2.1601  -6.9640 -13.7826   C.2       1 RES1   0.0000
    24 N24     -0.1245  -7.3456 -14.7526   N.3       1 RES1   0.0000
    25 C25     -1.0357 -11.6714 -13.2483   C.3       1 RES1   0.0000
    26 H26     -0.5759 -12.1806 -12.4026   H         1 RES1   0.0000
    27 H27     -0.5883 -12.0292 -14.1744   H         1 RES1   0.0000
    28 C28     -3.2065 -11.2442 -14.3695   C.3       1 RES1   0.0000
    29 H29     -2.8238 -11.6016 -15.3243   H         1 RES1   0.0000
    30 H30     -4.2739 -11.4504 -14.3061   H         1 RES1   0.0000
    31 C31     -2.9815  -9.7428 -14.2718   C.3       1 RES1   0.0000
    32 H32     -3.4458  -9.2566 -15.1285   H         1 RES1   0.0000
    33 H33     -3.4367  -9.3734 -13.3541   H         1 RES1   0.0000
    34 C34     -0.8071 -10.1752 -13.1220   C.3       1 RES1   0.0000
    35 H35     -1.2119  -9.8332 -12.1706   H         1 RES1   0.0000
    36 H36      0.2629  -9.9754 -13.1541   H         1 RES1   0.0000
    37 N37     -2.5034 -11.9566 -13.2623   N.4       1 RES1   1.0000
    38 H38     -2.9024 -11.6597 -12.3775   H         1 RES1   0.0000
    39 H39     -2.6410 -12.9556 -13.3773   H         1 RES1   0.0000
    40 N40      1.3147  -4.3027 -13.9953   N.ar      1 RES1   0.0000
    41 C41      2.2461  -3.9870 -16.5141   C.ar      1 RES1   0.0000
    42 H42      2.6191  -3.8698 -17.5262   H         1 RES1   0.0000
    43 N43      2.7767  -2.6625 -13.3391   N.pl3     1 RES1   0.0000
    44 H44      2.3752  -2.7613 -12.4067   H         1 RES1   0.0000
    45 C45      1.2482  -4.9142 -16.2910   C.ar      1 RES1   0.0000
    46 H46      0.8350  -5.5093 -17.0986   H         1 RES1   0.0000
    47 C47      2.2730  -3.4218 -14.3251   C.ar      1 RES1   0.0000
    48 N48      2.7785  -3.2233 -15.5512   N.ar      1 RES1   0.0000
    49 C49      3.8220  -1.6575 -13.5311   C.3       1 RES1   0.0000
    50 H50      3.7072  -1.2165 -14.5334   H         1 RES1   0.0000
    51 C51      5.2155  -2.2442 -13.4187   C.ar      1 RES1   0.0000
    52 C52      3.6078  -0.5633 -12.4919   C.3       1 RES1   0.0000
    53 H53      4.3421   0.2308 -12.6101   H         1 RES1   0.0000
    54 H54      2.6166  -0.1252 -12.5890   H         1 RES1   0.0000
    55 H55      3.7032  -0.9653 -11.4854   H         1 RES1   0.0000
    56 C56      7.7727  -3.3269 -13.1975   C.ar      1 RES1   0.0000
    57 H57      8.7684  -3.7491 -13.1118   H         1 RES1   0.0000
    58 C58      5.6262  -2.8618 -12.2461   C.ar      1 RES1   0.0000
    59 H59      4.9433  -2.9232 -11.4052   H         1 RES1   0.0000
    60 C60      6.1091  -2.1760 -14.4787   C.ar      1 RES1   0.0000
    61 H61      5.8110  -1.6963 -15.4050   H         1 RES1   0.0000
    62 C62      7.3798  -2.7149 -14.3675   C.ar      1 RES1   0.0000
    63 H63      8.0674  -2.6547 -15.2045   H         1 RES1   0.0000
    64 C64      6.8968  -3.4007 -12.1369   C.ar      1 RES1   0.0000
    65 H65      7.2030  -3.8821 -11.2141   H         1 RES1   0.0000
@<TRIPOS>BOND
     1     1     5   ar
     2     1     6   ar
     3     1     2    1
     4     3     8   ar
     5     3     9   ar
     6     3     4    1
     7     5     9   ar
     8     5    11    1
     9     6     8   ar
    10     6     7    1
    11     8    12    1
    12     9    10    1
    13    11    20    2
    14    11    23    1
    15    13    14    1
    16    13    23   am
    17    13    24    1
    18    14    31    1
    19    14    34    1
    20    14    15    1
    21    16    24    1
    22    16    17    1
    23    16    18    1
    24    16    19    1
    25    20    21    1
    26    20    24    1
    27    21    40   ar
    28    21    45   ar
    29    22    23    2
    30    25    34    1
    31    25    37    1
    32    25    26    1
    33    25    27    1
    34    28    31    1
    35    28    37    1
    36    28    29    1
    37    28    30    1
    38    31    32    1
    39    31    33    1
    40    34    35    1
    41    34    36    1
    42    37    38    1
    43    37    39    1
    44    40    47   ar
    45    41    45   ar
    46    41    48   ar
    47    41    42    1
    48    43    47    1
    49    43    49    1
    50    43    44    1
    51    45    46    1
    52    47    48   ar
    53    49    51    1
    54    49    52    1
    55    49    50    1
    56    51    58   ar
    57    51    60   ar
    58    52    53    1
    59    52    54    1
    60    52    55    1
    61    56    62   ar
    62    56    64   ar
    63    56    57    1
    64    58    64   ar
    65    58    59    1
    66    60    62   ar
    67    60    61    1
    68    62    63    1
    69    64    65    1
@<TRIPOS>SUBSTRUCTURE
     1 RES1        1 GROUP             0 ****  ****    0  
@<TRIPOS>MOLECULE
LIGAND_00370
    65    69     1     0     0
SMALL
USER_CHARGES
****
Generated from the CSD

@<TRIPOS>ATOM
     1 C1      -0.6994  -4.2982 -11.5265   C.ar      1 RES1   0.0000
     2 H2      -0.1324  -5.0965 -11.0599   H         1 RES1   0.0000
     3 C3      -2.1079  -2.2360 -12.7077   C.ar      1 RES1   0.0000
     4 H4      -2.6531  -1.4188 -13.1684   H         1 RES1   0.0000
     5 C5      -1.2881  -4.5128 -12.7691   C.ar      1 RES1   0.0000
     6 C6      -0.8173  -3.0836 -10.8742   C.ar      1 RES1   0.0000
     7 H7      -0.3630  -2.9289  -9.9013   H         1 RES1   0.0000
     8 C8      -1.5181  -2.0824 -11.4855   C.ar      1 RES1   0.0000
     9 C9      -1.9941  -3.4591 -13.3427   C.ar      1 RES1   0.0000
    10 H10     -2.4708  -3.5948 -14.3068   H         1 RES1   0.0000
    11 C11     -1.1659  -5.8217 -13.4895   C.2       1 RES1   0.0000
    12 F12     -1.6335  -0.8834 -10.8522   F         1 RES1   0.0000
    13 N13     -1.2406  -7.9410 -14.1570   N.am      1 RES1   0.0000
    14 C14     -1.5105  -9.4109 -14.3092   C.3       1 RES1   0.0000
    15 H15     -1.1035  -9.7318 -15.2669   H         1 RES1   0.0000
    16 C16     -0.3252  -7.6743 -16.4955   C.3       1 RES1   0.0000
    17 H17      0.3111  -6.9768 -17.0363   H         1 RES1   0.0000
    18 H18      0.1840  -8.6350 -16.4543   H         1 RES1   0.0000
    19 H19     -1.2460  -7.8022 -17.0607   H         1 RES1   0.0000
    20 C20     -0.5870  -5.9122 -14.7311   C.2       1 RES1   0.0000
    21 C21      0.0604  -4.8376 -15.5265   C.ar      1 RES1   0.0000
    22 O22     -2.1510  -7.5590 -12.1278   O.2       1 RES1   0.0000
    23 C23     -1.5821  -7.1365 -13.1259   C.2       1 RES1   0.0000
    24 N24     -0.6101  -7.1788 -15.1484   N.pl3     1 RES1   0.0000
    25 C25     -1.0509 -11.6946 -13.3604   C.3       1 RES1   0.0000
    26 H26     -0.5770 -12.2260 -12.5364   H         1 RES1   0.0000
    27 H27     -0.6263 -12.0348 -14.3037   H         1 RES1   0.0000
    28 C28     -3.2420 -11.2269 -14.4246   C.3       1 RES1   0.0000
    29 H29     -2.8825 -11.5655 -15.3952   H         1 RES1   0.0000
    30 H30     -4.3093 -11.4269 -14.3428   H         1 RES1   0.0000
    31 C31     -3.0035  -9.7297 -14.2984   C.3       1 RES1   0.0000
    32 H32     -3.4823  -9.2212 -15.1339   H         1 RES1   0.0000
    33 H33     -3.4361  -9.3778 -13.3631   H         1 RES1   0.0000
    34 C34     -0.8084 -10.2033 -13.2058   C.3       1 RES1   0.0000
    35 H35     -1.1900  -9.8799 -12.2385   H         1 RES1   0.0000
    36 H36      0.2622 -10.0106 -13.2566   H         1 RES1   0.0000
    37 N37     -2.5207 -11.9689 -13.3491   N.4       1 RES1   1.0000
    38 H38     -2.8984 -11.6892 -12.4495   H         1 RES1   0.0000
    39 H39     -2.6684 -12.9641 -13.4833   H         1 RES1   0.0000
    40 N40     -0.7315  -4.1442 -16.3595   N.ar      1 RES1   0.0000
    41 C41      1.9032  -3.5489 -16.2337   C.ar      1 RES1   0.0000
    42 H42      2.9602  -3.3115 -16.1736   H         1 RES1   0.0000
    43 N43     -0.9391  -2.5074 -17.9520   N.pl3     1 RES1   0.0000
    44 H44     -0.5298  -1.7226 -18.4588   H         1 RES1   0.0000
    45 C45      1.4167  -4.5622 -15.4325   C.ar      1 RES1   0.0000
    46 H46      2.0651  -5.1182 -14.7635   H         1 RES1   0.0000
    47 C47     -0.1524  -3.1875 -17.1028   C.ar      1 RES1   0.0000
    48 N48      1.1435  -2.8434 -17.0815   N.ar      1 RES1   0.0000
    49 C49     -2.3624  -2.7816 -18.1490   C.3       1 RES1   0.0000
    50 H50     -2.8780  -2.6807 -17.1814   H         1 RES1   0.0000
    51 C51     -2.6131  -4.1769 -18.6864   C.ar      1 RES1   0.0000
    52 C52     -2.9089  -1.7257 -19.1027   C.3       1 RES1   0.0000
    53 H53     -3.9564  -1.9143 -19.3284   H         1 RES1   0.0000
    54 H54     -2.8299  -0.7318 -18.6671   H         1 RES1   0.0000
    55 H55     -2.3549  -1.7300 -20.0390   H         1 RES1   0.0000
    56 C56     -3.0718  -6.7354 -19.6883   C.ar      1 RES1   0.0000
    57 H57     -3.2497  -7.7321 -20.0783   H         1 RES1   0.0000
    58 C58     -2.5699  -4.4234 -20.0511   C.ar      1 RES1   0.0000
    59 H59     -2.3553  -3.6098 -20.7361   H         1 RES1   0.0000
    60 C60     -2.8928  -5.2342 -17.8316   C.ar      1 RES1   0.0000
    61 H61     -2.9337  -5.0653 -16.7606   H         1 RES1   0.0000
    62 C62     -3.1202  -6.5055 -18.3310   C.ar      1 RES1   0.0000
    63 H63     -3.3369  -7.3224 -17.6508   H         1 RES1   0.0000
    64 C64     -2.7967  -5.6953 -20.5486   C.ar      1 RES1   0.0000
    65 H65     -2.7577  -5.8729 -21.6182   H         1 RES1   0.0000
@<TRIPOS>BOND
     1     1     5   ar
     2     1     6   ar
     3     1     2    1
     4     3     8   ar
     5     3     9   ar
     6     3     4    1
     7     5     9   ar
     8     5    11    1
     9     6     8   ar
    10     6     7    1
    11     8    12    1
    12     9    10    1
    13    11    20    2
    14    11    23    1
    15    13    14    1
    16    13    23   am
    17    13    24    1
    18    14    31    1
    19    14    34    1
    20    14    15    1
    21    16    24    1
    22    16    17    1
    23    16    18    1
    24    16    19    1
    25    20    21    1
    26    20    24    1
    27    21    40   ar
    28    21    45   ar
    29    22    23    2
    30    25    34    1
    31    25    37    1
    32    25    26    1
    33    25    27    1
    34    28    31    1
    35    28    37    1
    36    28    29    1
    37    28    30    1
    38    31    32    1
    39    31    33    1
    40    34    35    1
    41    34    36    1
    42    37    38    1
    43    37    39    1
    44    40    47   ar
    45    41    45   ar
    46    41    48   ar
    47    41    42    1
    48    43    47    1
    49    43    49    1
    50    43    44    1
    51    45    46    1
    52    47    48   ar
    53    49    51    1
    54    49    52    1
    55    49    50    1
    56    51    58   ar
    57    51    60   ar
    58    52    53    1
    59    52    54    1
    60    52    55    1
    61    56    62   ar
    62    56    64   ar
    63    56    57    1
    64    58    64   ar
    65    58    59    1
    66    60    62   ar
    67    60    61    1
    68    62    63    1
    69    64    65    1
@<TRIPOS>SUBSTRUCTURE
     1 RES1        1 GROUP             0 ****  ****    0  
@<TRIPOS>MOLECULE
LIGAND_00371
    65    69     1     0     0
SMALL
USER_CHARGES
****
Generated from the CSD

@<TRIPOS>ATOM
     1 C1      -0.1734  -3.7512 -12.4311   C.ar      1 RES1   0.0000
     2 H2       0.8163  -4.1080 -12.6950   H         1 RES1   0.0000
     3 C3      -2.6841  -2.8012 -11.7784   C.ar      1 RES1   0.0000
     4 H4      -3.6670  -2.4178 -11.5253   H         1 RES1   0.0000
     5 C5      -1.2881  -4.5128 -12.7691   C.ar      1 RES1   0.0000
     6 C6      -0.3010  -2.5429 -11.7691   C.ar      1 RES1   0.0000
     7 H7       0.5744  -1.9608 -11.5013   H         1 RES1   0.0000
     8 C8      -1.5563  -2.0986 -11.4624   C.ar      1 RES1   0.0000
     9 C9      -2.5420  -4.0138 -12.4278   C.ar      1 RES1   0.0000
    10 H10     -3.4308  -4.5851 -12.6702   H         1 RES1   0.0000
    11 C11     -1.1659  -5.8217 -13.4895   C.2       1 RES1   0.0000
    12 F12     -1.6897  -0.9084 -10.8162   F         1 RES1   0.0000
    13 N13     -1.2406  -7.9410 -14.1570   N.am      1 RES1   0.0000
    14 C14     -1.5105  -9.4109 -14.3092   C.3       1 RES1   0.0000
    15 H15     -1.1035  -9.7318 -15.2669   H         1 RES1   0.0000
    16 C16     -0.3252  -7.6743 -16.4955   C.3       1 RES1   0.0000
    17 H17      0.3116  -6.9771 -17.0361   H         1 RES1   0.0000
    18 H18      0.1835  -8.6352 -16.4543   H         1 RES1   0.0000
    19 H19     -1.2460  -7.8016 -17.0609   H         1 RES1   0.0000
    20 C20     -0.5870  -5.9122 -14.7311   C.2       1 RES1   0.0000
    21 C21      0.0604  -4.8376 -15.5265   C.ar      1 RES1   0.0000
    22 O22     -2.1510  -7.5590 -12.1278   O.2       1 RES1   0.0000
    23 C23     -1.5821  -7.1365 -13.1259   C.2       1 RES1   0.0000
    24 N24     -0.6101  -7.1788 -15.1484   N.pl3     1 RES1   0.0000
    25 C25     -1.0509 -11.6946 -13.3604   C.3       1 RES1   0.0000
    26 H26     -0.5770 -12.2260 -12.5364   H         1 RES1   0.0000
    27 H27     -0.6263 -12.0348 -14.3037   H         1 RES1   0.0000
    28 C28     -3.2420 -11.2269 -14.4246   C.3       1 RES1   0.0000
    29 H29     -2.8825 -11.5655 -15.3952   H         1 RES1   0.0000
    30 H30     -4.3093 -11.4269 -14.3428   H         1 RES1   0.0000
    31 C31     -3.0035  -9.7297 -14.2984   C.3       1 RES1   0.0000
    32 H32     -3.4823  -9.2212 -15.1339   H         1 RES1   0.0000
    33 H33     -3.4361  -9.3778 -13.3631   H         1 RES1   0.0000
    34 C34     -0.8084 -10.2033 -13.2058   C.3       1 RES1   0.0000
    35 H35     -1.1900  -9.8799 -12.2385   H         1 RES1   0.0000
    36 H36      0.2622 -10.0106 -13.2566   H         1 RES1   0.0000
    37 N37     -2.5207 -11.9689 -13.3491   N.4       1 RES1   1.0000
    38 H38     -2.8984 -11.6892 -12.4495   H         1 RES1   0.0000
    39 H39     -2.6684 -12.9641 -13.4833   H         1 RES1   0.0000
    40 N40     -0.7315  -4.1442 -16.3595   N.ar      1 RES1   0.0000
    41 C41      1.9032  -3.5489 -16.2337   C.ar      1 RES1   0.0000
    42 H42      2.9602  -3.3115 -16.1736   H         1 RES1   0.0000
    43 N43     -0.9391  -2.5074 -17.9520   N.pl3     1 RES1   0.0000
    44 H44     -0.5298  -1.7226 -18.4588   H         1 RES1   0.0000
    45 C45      1.4167  -4.5622 -15.4325   C.ar      1 RES1   0.0000
    46 H46      2.0651  -5.1182 -14.7635   H         1 RES1   0.0000
    47 C47     -0.1524  -3.1875 -17.1028   C.ar      1 RES1   0.0000
    48 N48      1.1435  -2.8434 -17.0815   N.ar      1 RES1   0.0000
    49 C49     -2.3624  -2.7816 -18.1490   C.3       1 RES1   0.0000
    50 H50     -2.8780  -2.6807 -17.1814   H         1 RES1   0.0000
    51 C51     -2.6131  -4.1769 -18.6864   C.ar      1 RES1   0.0000
    52 C52     -2.9089  -1.7257 -19.1027   C.3       1 RES1   0.0000
    53 H53     -3.9565  -1.9142 -19.3283   H         1 RES1   0.0000
    54 H54     -2.8297  -0.7318 -18.6671   H         1 RES1   0.0000
    55 H55     -2.3550  -1.7301 -20.0391   H         1 RES1   0.0000
    56 C56     -3.0718  -6.7354 -19.6883   C.ar      1 RES1   0.0000
    57 H57     -3.2497  -7.7321 -20.0783   H         1 RES1   0.0000
    58 C58     -2.5699  -4.4234 -20.0511   C.ar      1 RES1   0.0000
    59 H59     -2.3553  -3.6098 -20.7361   H         1 RES1   0.0000
    60 C60     -2.8928  -5.2342 -17.8316   C.ar      1 RES1   0.0000
    61 H61     -2.9337  -5.0653 -16.7606   H         1 RES1   0.0000
    62 C62     -3.1202  -6.5055 -18.3310   C.ar      1 RES1   0.0000
    63 H63     -3.3369  -7.3224 -17.6508   H         1 RES1   0.0000
    64 C64     -2.7968  -5.6953 -20.5486   C.ar      1 RES1   0.0000
    65 H65     -2.7577  -5.8729 -21.6182   H         1 RES1   0.0000
@<TRIPOS>BOND
     1     1     5   ar
     2     1     6   ar
     3     1     2    1
     4     3     8   ar
     5     3     9   ar
     6     3     4    1
     7     5     9   ar
     8     5    11    1
     9     6     8   ar
    10     6     7    1
    11     8    12    1
    12     9    10    1
    13    11    20    2
    14    11    23    1
    15    13    14    1
    16    13    23   am
    17    13    24    1
    18    14    31    1
    19    14    34    1
    20    14    15    1
    21    16    24    1
    22    16    17    1
    23    16    18    1
    24    16    19    1
    25    20    21    1
    26    20    24    1
    27    21    40   ar
    28    21    45   ar
    29    22    23    2
    30    25    34    1
    31    25    37    1
    32    25    26    1
    33    25    27    1
    34    28    31    1
    35    28    37    1
    36    28    29    1
    37    28    30    1
    38    31    32    1
    39    31    33    1
    40    34    35    1
    41    34    36    1
    42    37    38    1
    43    37    39    1
    44    40    47   ar
    45    41    45   ar
    46    41    48   ar
    47    41    42    1
    48    43    47    1
    49    43    49    1
    50    43    44    1
    51    45    46    1
    52    47    48   ar
    53    49    51    1
    54    49    52    1
    55    49    50    1
    56    51    58   ar
    57    51    60   ar
    58    52    53    1
    59    52    54    1
    60    52    55    1
    61    56    62   ar
    62    56    64   ar
    63    56    57    1
    64    58    64   ar
    65    58    59    1
    66    60    62   ar
    67    60    61    1
    68    62    63    1
    69    64    65    1
@<TRIPOS>SUBSTRUCTURE
     1 RES1        1 GROUP             0 ****  ****    0  
@<TRIPOS>MOLECULE
LIGAND_00372
    65    69     1     0     0
SMALL
USER_CHARGES
****
Generated from the CSD

@<TRIPOS>ATOM
     1 C1      -0.6994  -4.2982 -11.5265   C.ar      1 RES1   0.0000
     2 H2      -0.1323  -5.0965 -11.0599   H         1 RES1   0.0000
     3 C3      -2.1079  -2.2360 -12.7076   C.ar      1 RES1   0.0000
     4 H4      -2.6530  -1.4188 -13.1683   H         1 RES1   0.0000
     5 C5      -1.2881  -4.5128 -12.7691   C.ar      1 RES1   0.0000
     6 C6      -0.8173  -3.0836 -10.8742   C.ar      1 RES1   0.0000
     7 H7      -0.3629  -2.9290  -9.9013   H         1 RES1   0.0000
     8 C8      -1.5180  -2.0824 -11.4854   C.ar      1 RES1   0.0000
     9 C9      -1.9941  -3.4590 -13.3427   C.ar      1 RES1   0.0000
    10 H10     -2.4708  -3.5947 -14.3068   H         1 RES1   0.0000
    11 C11     -1.1659  -5.8217 -13.4895   C.2       1 RES1   0.0000
    12 F12     -1.6334  -0.8834 -10.8522   F         1 RES1   0.0000
    13 N13     -1.2406  -7.9410 -14.1570   N.am      1 RES1   0.0000
    14 C14     -1.5106  -9.4109 -14.3092   C.3       1 RES1   0.0000
    15 H15     -1.1037  -9.7317 -15.2670   H         1 RES1   0.0000
    16 C16     -0.3252  -7.6743 -16.4955   C.3       1 RES1   0.0000
    17 H17      0.3738  -7.0168 -17.0084   H         1 RES1   0.0000
    18 H18      0.1126  -8.6696 -16.4567   H         1 RES1   0.0000
    19 H19     -1.2373  -7.7275 -17.0863   H         1 RES1   0.0000
    20 C20     -0.5870  -5.9122 -14.7311   C.2       1 RES1   0.0000
    21 C21      0.0604  -4.8376 -15.5265   C.ar      1 RES1   0.0000
    22 O22     -2.1510  -7.5590 -12.1278   O.2       1 RES1   0.0000
    23 C23     -1.5821  -7.1365 -13.1259   C.2       1 RES1   0.0000
    24 N24     -0.6101  -7.1788 -15.1485   N.pl3     1 RES1   0.0000
    25 C25     -1.0507 -11.6947 -13.3606   C.3       1 RES1   0.0000
    26 H26     -0.5766 -12.2260 -12.5367   H         1 RES1   0.0000
    27 H27     -0.6262 -12.0348 -14.3041   H         1 RES1   0.0000
    28 C28     -3.2420 -11.2269 -14.4243   C.3       1 RES1   0.0000
    29 H29     -2.8828 -11.5654 -15.3950   H         1 RES1   0.0000
    30 H30     -4.3093 -11.4269 -14.3423   H         1 RES1   0.0000
    31 C31     -3.0035  -9.7298 -14.2981   C.3       1 RES1   0.0000
    32 H32     -3.4825  -9.2211 -15.1334   H         1 RES1   0.0000
    33 H33     -3.4359  -9.3779 -13.3626   H         1 RES1   0.0000
    34 C34     -0.8081 -10.2034 -13.2060   C.3       1 RES1   0.0000
    35 H35     -1.1895  -9.8799 -12.2386   H         1 RES1   0.0000
    36 H36      0.2625 -10.0106 -13.2570   H         1 RES1   0.0000
    37 N37     -2.5205 -11.9690 -13.3490   N.4       1 RES1   1.0000
    38 H38     -2.8979 -11.6893 -12.4492   H         1 RES1   0.0000
    39 H39     -2.6682 -12.9642 -13.4832   H         1 RES1   0.0000
    40 N40      1.3774  -4.6591 -15.3388   N.ar      1 RES1   0.0000
    41 C41      0.0602  -3.0675 -17.0834   C.ar      1 RES1   0.0000
    42 H42     -0.4737  -2.4365 -17.7862   H         1 RES1   0.0000
    43 N43      3.2815  -3.4798 -15.8307   N.pl3     1 RES1   0.0000
    44 H44      3.7387  -4.0270 -15.1013   H         1 RES1   0.0000
    45 C45     -0.6510  -4.0422 -16.4129   C.ar      1 RES1   0.0000
    46 H46     -1.7159  -4.1777 -16.5702   H         1 RES1   0.0000
    47 C47      1.9685  -3.6735 -16.0332   C.ar      1 RES1   0.0000
    48 N48      1.3719  -2.8567 -16.9137   N.ar      1 RES1   0.0000
    49 C49      4.0840  -2.4887 -16.5472   C.3       1 RES1   0.0000
    50 H50      3.6437  -1.4931 -16.3825   H         1 RES1   0.0000
    51 C51      4.1330  -2.7540 -18.0391   C.ar      1 RES1   0.0000
    52 C52      5.4845  -2.5057 -15.9460   C.3       1 RES1   0.0000
    53 H53      6.1377  -1.8103 -16.4689   H         1 RES1   0.0000
    54 H54      5.4590  -2.2222 -14.8959   H         1 RES1   0.0000
    55 H55      5.9214  -3.4995 -16.0179   H         1 RES1   0.0000
    56 C56      4.2350  -3.2513 -20.7782   C.ar      1 RES1   0.0000
    57 H57      4.2741  -3.4454 -21.8449   H         1 RES1   0.0000
    58 C58      5.0737  -3.6260 -18.5680   C.ar      1 RES1   0.0000
    59 H59      5.7783  -4.1195 -17.9068   H         1 RES1   0.0000
    60 C60      3.2450  -2.1330 -18.9066   C.ar      1 RES1   0.0000
    61 H61      2.5016  -1.4458 -18.5164   H         1 RES1   0.0000
    62 C62      3.2966  -2.3814 -20.2679   C.ar      1 RES1   0.0000
    63 H63      2.5957  -1.8893 -20.9339   H         1 RES1   0.0000
    64 C64      5.1234  -3.8737 -19.9292   C.ar      1 RES1   0.0000
    65 H65      5.8637  -4.5595 -20.3277   H         1 RES1   0.0000
@<TRIPOS>BOND
     1     1     5   ar
     2     1     6   ar
     3     1     2    1
     4     3     8   ar
     5     3     9   ar
     6     3     4    1
     7     5     9   ar
     8     5    11    1
     9     6     8   ar
    10     6     7    1
    11     8    12    1
    12     9    10    1
    13    11    20    2
    14    11    23    1
    15    13    14    1
    16    13    23   am
    17    13    24    1
    18    14    31    1
    19    14    34    1
    20    14    15    1
    21    16    24    1
    22    16    17    1
    23    16    18    1
    24    16    19    1
    25    20    21    1
    26    20    24    1
    27    21    40   ar
    28    21    45   ar
    29    22    23    2
    30    25    34    1
    31    25    37    1
    32    25    26    1
    33    25    27    1
    34    28    31    1
    35    28    37    1
    36    28    29    1
    37    28    30    1
    38    31    32    1
    39    31    33    1
    40    34    35    1
    41    34    36    1
    42    37    38    1
    43    37    39    1
    44    40    47   ar
    45    41    45   ar
    46    41    48   ar
    47    41    42    1
    48    43    47    1
    49    43    49    1
    50    43    44    1
    51    45    46    1
    52    47    48   ar
    53    49    51    1
    54    49    52    1
    55    49    50    1
    56    51    58   ar
    57    51    60   ar
    58    52    53    1
    59    52    54    1
    60    52    55    1
    61    56    62   ar
    62    56    64   ar
    63    56    57    1
    64    58    64   ar
    65    58    59    1
    66    60    62   ar
    67    60    61    1
    68    62    63    1
    69    64    65    1
@<TRIPOS>SUBSTRUCTURE
     1 RES1        1 GROUP             0 ****  ****    0  
@<TRIPOS>MOLECULE
LIGAND_00373
    65    69     1     0     0
SMALL
USER_CHARGES
****
Generated from the CSD

@<TRIPOS>ATOM
     1 C1      -0.6994  -4.2982 -11.5265   C.ar      1 RES1   0.0000
     2 H2      -0.1323  -5.0965 -11.0599   H         1 RES1   0.0000
     3 C3      -2.1079  -2.2360 -12.7076   C.ar      1 RES1   0.0000
     4 H4      -2.6530  -1.4188 -13.1683   H         1 RES1   0.0000
     5 C5      -1.2881  -4.5128 -12.7691   C.ar      1 RES1   0.0000
     6 C6      -0.8173  -3.0836 -10.8742   C.ar      1 RES1   0.0000
     7 H7      -0.3629  -2.9290  -9.9013   H         1 RES1   0.0000
     8 C8      -1.5180  -2.0824 -11.4854   C.ar      1 RES1   0.0000
     9 C9      -1.9941  -3.4590 -13.3427   C.ar      1 RES1   0.0000
    10 H10     -2.4708  -3.5947 -14.3068   H         1 RES1   0.0000
    11 C11     -1.1659  -5.8217 -13.4895   C.2       1 RES1   0.0000
    12 F12     -1.6334  -0.8834 -10.8522   F         1 RES1   0.0000
    13 N13     -1.2406  -7.9410 -14.1570   N.am      1 RES1   0.0000
    14 C14     -1.5106  -9.4109 -14.3092   C.3       1 RES1   0.0000
    15 H15     -1.1037  -9.7317 -15.2670   H         1 RES1   0.0000
    16 C16     -0.3252  -7.6743 -16.4955   C.3       1 RES1   0.0000
    17 H17      0.3738  -7.0168 -17.0084   H         1 RES1   0.0000
    18 H18      0.1126  -8.6696 -16.4567   H         1 RES1   0.0000
    19 H19     -1.2373  -7.7275 -17.0863   H         1 RES1   0.0000
    20 C20     -0.5870  -5.9122 -14.7311   C.2       1 RES1   0.0000
    21 C21      0.0604  -4.8376 -15.5265   C.ar      1 RES1   0.0000
    22 O22     -2.1510  -7.5590 -12.1278   O.2       1 RES1   0.0000
    23 C23     -1.5821  -7.1365 -13.1259   C.2       1 RES1   0.0000
    24 N24     -0.6101  -7.1788 -15.1485   N.pl3     1 RES1   0.0000
    25 C25     -1.0507 -11.6947 -13.3606   C.3       1 RES1   0.0000
    26 H26     -0.5766 -12.2260 -12.5367   H         1 RES1   0.0000
    27 H27     -0.6262 -12.0348 -14.3041   H         1 RES1   0.0000
    28 C28     -3.2420 -11.2269 -14.4243   C.3       1 RES1   0.0000
    29 H29     -2.8828 -11.5654 -15.3950   H         1 RES1   0.0000
    30 H30     -4.3093 -11.4269 -14.3423   H         1 RES1   0.0000
    31 C31     -3.0035  -9.7298 -14.2981   C.3       1 RES1   0.0000
    32 H32     -3.4825  -9.2211 -15.1334   H         1 RES1   0.0000
    33 H33     -3.4359  -9.3779 -13.3626   H         1 RES1   0.0000
    34 C34     -0.8081 -10.2034 -13.2060   C.3       1 RES1   0.0000
    35 H35     -1.1895  -9.8799 -12.2386   H         1 RES1   0.0000
    36 H36      0.2625 -10.0106 -13.2570   H         1 RES1   0.0000
    37 N37     -2.5205 -11.9690 -13.3490   N.4       1 RES1   1.0000
    38 H38     -2.8979 -11.6893 -12.4492   H         1 RES1   0.0000
    39 H39     -2.6682 -12.9642 -13.4832   H         1 RES1   0.0000
    40 N40     -0.7315  -4.1442 -16.3595   N.ar      1 RES1   0.0000
    41 C41      1.9032  -3.5489 -16.2337   C.ar      1 RES1   0.0000
    42 H42      2.9602  -3.3115 -16.1736   H         1 RES1   0.0000
    43 N43     -0.9391  -2.5074 -17.9520   N.pl3     1 RES1   0.0000
    44 H44     -1.9080  -2.8097 -18.0526   H         1 RES1   0.0000
    45 C45      1.4167  -4.5622 -15.4325   C.ar      1 RES1   0.0000
    46 H46      2.0651  -5.1182 -14.7635   H         1 RES1   0.0000
    47 C47     -0.1524  -3.1875 -17.1028   C.ar      1 RES1   0.0000
    48 N48      1.1435  -2.8434 -17.0815   N.ar      1 RES1   0.0000
    49 C49     -0.4774  -1.4001 -18.7888   C.3       1 RES1   0.0000
    50 H50      0.3466  -1.7588 -19.4250   H         1 RES1   0.0000
    51 C51      0.0212  -0.2257 -17.9698   C.ar      1 RES1   0.0000
    52 C52     -1.6372  -0.9835 -19.6857   C.3       1 RES1   0.0000
    53 H53     -1.3597  -0.1341 -20.3064   H         1 RES1   0.0000
    54 H54     -1.9327  -1.7999 -20.3414   H         1 RES1   0.0000
    55 H55     -2.5012  -0.6987 -19.0890   H         1 RES1   0.0000
    56 C56      0.9229   1.9375 -16.4638   C.ar      1 RES1   0.0000
    57 H57      1.2741   2.7795 -15.8767   H         1 RES1   0.0000
    58 C58     -0.8651   0.7366 -17.5078   C.ar      1 RES1   0.0000
    59 H59     -1.9218   0.6455 -17.7362   H         1 RES1   0.0000
    60 C60      1.3684  -0.0845 -17.6664   C.ar      1 RES1   0.0000
    61 H61      2.0806  -0.8235 -18.0183   H         1 RES1   0.0000
    62 C62      1.8151   0.9911 -16.9175   C.ar      1 RES1   0.0000
    63 H63      2.8709   1.0881 -16.6875   H         1 RES1   0.0000
    64 C64     -0.4168   1.8109 -16.7584   C.ar      1 RES1   0.0000
    65 H65     -1.1223   2.5544 -16.4026   H         1 RES1   0.0000
@<TRIPOS>BOND
     1     1     5   ar
     2     1     6   ar
     3     1     2    1
     4     3     8   ar
     5     3     9   ar
     6     3     4    1
     7     5     9   ar
     8     5    11    1
     9     6     8   ar
    10     6     7    1
    11     8    12    1
    12     9    10    1
    13    11    20    2
    14    11    23    1
    15    13    14    1
    16    13    23   am
    17    13    24    1
    18    14    31    1
    19    14    34    1
    20    14    15    1
    21    16    24    1
    22    16    17    1
    23    16    18    1
    24    16    19    1
    25    20    21    1
    26    20    24    1
    27    21    40   ar
    28    21    45   ar
    29    22    23    2
    30    25    34    1
    31    25    37    1
    32    25    26    1
    33    25    27    1
    34    28    31    1
    35    28    37    1
    36    28    29    1
    37    28    30    1
    38    31    32    1
    39    31    33    1
    40    34    35    1
    41    34    36    1
    42    37    38    1
    43    37    39    1
    44    40    47   ar
    45    41    45   ar
    46    41    48   ar
    47    41    42    1
    48    43    47    1
    49    43    49    1
    50    43    44    1
    51    45    46    1
    52    47    48   ar
    53    49    51    1
    54    49    52    1
    55    49    50    1
    56    51    58   ar
    57    51    60   ar
    58    52    53    1
    59    52    54    1
    60    52    55    1
    61    56    62   ar
    62    56    64   ar
    63    56    57    1
    64    58    64   ar
    65    58    59    1
    66    60    62   ar
    67    60    61    1
    68    62    63    1
    69    64    65    1
@<TRIPOS>SUBSTRUCTURE
     1 RES1        1 GROUP             0 ****  ****    0  
@<TRIPOS>MOLECULE
LIGAND_00374
    65    69     1     0     0
SMALL
USER_CHARGES
****
Generated from the CSD

@<TRIPOS>ATOM
     1 C1      -0.8212  -4.2598 -11.5473   C.ar      1 RES1   0.0000
     2 H2      -0.2630  -5.0453 -11.0494   H         1 RES1   0.0000
     3 C3      -2.2076  -2.2297 -12.8075   C.ar      1 RES1   0.0000
     4 H4      -2.7443  -1.4250 -13.2991   H         1 RES1   0.0000
     5 C5      -1.3610  -4.4975 -12.8078   C.ar      1 RES1   0.0000
     6 C6      -0.9766  -3.0383 -10.9164   C.ar      1 RES1   0.0000
     7 H7      -0.5603  -2.8656  -9.9295   H         1 RES1   0.0000
     8 C8      -1.6652  -2.0533 -11.5666   C.ar      1 RES1   0.0000
     9 C9      -2.0568  -3.4596 -13.4214   C.ar      1 RES1   0.0000
    10 H10     -2.4960  -3.6135 -14.4004   H         1 RES1   0.0000
    11 C11     -1.1977  -5.8143 -13.5054   C.2       1 RES1   0.0000
    12 F12     -1.8173  -0.8475 -10.9544   F         1 RES1   0.0000
    13 N13     -1.2181  -7.9441 -14.1428   N.am      1 RES1   0.0000
    14 C14     -1.4579  -9.4207 -14.2795   C.3       1 RES1   0.0000
    15 H15     -1.0221  -9.7479 -15.2224   H         1 RES1   0.0000
    16 C16     -0.2505  -7.6946 -16.4621   C.3       1 RES1   0.0000
    17 H17      0.4371  -7.0241 -16.9735   H         1 RES1   0.0000
    18 H18      0.2180  -8.6745 -16.3969   H         1 RES1   0.0000
    19 H19     -1.1486  -7.7875 -17.0690   H         1 RES1   0.0000
    20 C20     -0.5870  -5.9122 -14.7311   C.2       1 RES1   0.0000
    21 C21      0.0604  -4.8376 -15.5265   C.ar      1 RES1   0.0000
    22 O22     -2.1847  -7.5494 -12.1423   O.2       1 RES1   0.0000
    23 C23     -1.5992  -7.1310 -13.1324   C.2       1 RES1   0.0000
    24 N24     -0.5772  -7.1849 -15.1299   N.pl3     1 RES1   0.0000
    25 C25     -0.9803 -11.6817 -13.2863   C.3       1 RES1   0.0000
    26 H26     -0.5169 -12.1924 -12.4434   H         1 RES1   0.0000
    27 H27     -0.5270 -12.0276 -14.2140   H         1 RES1   0.0000
    28 C28     -3.1531 -11.2695 -14.4092   C.3       1 RES1   0.0000
    29 H29     -2.7644 -11.6154 -15.3658   H         1 RES1   0.0000
    30 H30     -4.2184 -11.4878 -14.3499   H         1 RES1   0.0000
    31 C31     -2.9447  -9.7666 -14.2996   C.3       1 RES1   0.0000
    32 H32     -3.4123  -9.2790 -15.1537   H         1 RES1   0.0000
    33 H33     -3.4059  -9.4092 -13.3801   H         1 RES1   0.0000
    34 C34     -0.7683 -10.1841 -13.1481   C.3       1 RES1   0.0000
    35 H35     -1.1789  -9.8538 -12.1951   H         1 RES1   0.0000
    36 H36      0.2995  -9.9726 -13.1762   H         1 RES1   0.0000
    37 N37     -2.4448 -11.9827 -13.3059   N.4       1 RES1   1.0000
    38 H38     -2.8490 -11.6970 -12.4198   H         1 RES1   0.0000
    39 H39     -2.5713 -12.9822 -13.4288   H         1 RES1   0.0000
    40 N40      1.3774  -4.6591 -15.3388   N.ar      1 RES1   0.0000
    41 C41      0.0602  -3.0675 -17.0834   C.ar      1 RES1   0.0000
    42 H42     -0.4737  -2.4365 -17.7862   H         1 RES1   0.0000
    43 N43      3.2815  -3.4798 -15.8307   N.pl3     1 RES1   0.0000
    44 H44      3.7546  -2.7776 -16.3993   H         1 RES1   0.0000
    45 C45     -0.6510  -4.0422 -16.4129   C.ar      1 RES1   0.0000
    46 H46     -1.7159  -4.1777 -16.5702   H         1 RES1   0.0000
    47 C47      1.9685  -3.6735 -16.0332   C.ar      1 RES1   0.0000
    48 N48      1.3719  -2.8567 -16.9137   N.ar      1 RES1   0.0000
    49 C49      4.0891  -4.2564 -14.8903   C.3       1 RES1   0.0000
    50 H50      4.0222  -5.3209 -15.1636   H         1 RES1   0.0000
    51 C51      3.6214  -4.0958 -13.4571   C.ar      1 RES1   0.0000
    52 C52      5.5373  -3.8061 -15.0430   C.3       1 RES1   0.0000
    53 H53      6.1816  -4.3336 -14.3427   H         1 RES1   0.0000
    54 H54      5.8998  -4.0015 -16.0500   H         1 RES1   0.0000
    55 H55      5.6302  -2.7393 -14.8506   H         1 RES1   0.0000
    56 C56      2.7707  -3.7877 -10.8224   C.ar      1 RES1   0.0000
    57 H57      2.4387  -3.6675  -9.7965   H         1 RES1   0.0000
    58 C58      4.0686  -3.0324 -12.6862   C.ar      1 RES1   0.0000
    59 H59      4.7583  -2.3127 -13.1147   H         1 RES1   0.0000
    60 C60      2.7420  -5.0044 -12.8845   C.ar      1 RES1   0.0000
    61 H61      2.3801  -5.8449 -13.4673   H         1 RES1   0.0000
    62 C62      2.3197  -4.8498 -11.5749   C.ar      1 RES1   0.0000
    63 H63      1.6316  -5.5674 -11.1407   H         1 RES1   0.0000
    64 C64      3.6448  -2.8790 -11.3772   C.ar      1 RES1   0.0000
    65 H65      4.0019  -2.0413 -10.7874   H         1 RES1   0.0000
@<TRIPOS>BOND
     1     1     5   ar
     2     1     6   ar
     3     1     2    1
     4     3     8   ar
     5     3     9   ar
     6     3     4    1
     7     5     9   ar
     8     5    11    1
     9     6     8   ar
    10     6     7    1
    11     8    12    1
    12     9    10    1
    13    11    20    2
    14    11    23    1
    15    13    14    1
    16    13    23   am
    17    13    24    1
    18    14    31    1
    19    14    34    1
    20    14    15    1
    21    16    24    1
    22    16    17    1
    23    16    18    1
    24    16    19    1
    25    20    21    1
    26    20    24    1
    27    21    40   ar
    28    21    45   ar
    29    22    23    2
    30    25    34    1
    31    25    37    1
    32    25    26    1
    33    25    27    1
    34    28    31    1
    35    28    37    1
    36    28    29    1
    37    28    30    1
    38    31    32    1
    39    31    33    1
    40    34    35    1
    41    34    36    1
    42    37    38    1
    43    37    39    1
    44    40    47   ar
    45    41    45   ar
    46    41    48   ar
    47    41    42    1
    48    43    47    1
    49    43    49    1
    50    43    44    1
    51    45    46    1
    52    47    48   ar
    53    49    51    1
    54    49    52    1
    55    49    50    1
    56    51    58   ar
    57    51    60   ar
    58    52    53    1
    59    52    54    1
    60    52    55    1
    61    56    62   ar
    62    56    64   ar
    63    56    57    1
    64    58    64   ar
    65    58    59    1
    66    60    62   ar
    67    60    61    1
    68    62    63    1
    69    64    65    1
@<TRIPOS>SUBSTRUCTURE
     1 RES1        1 GROUP             0 ****  ****    0  
@<TRIPOS>MOLECULE
LIGAND_00375
    65    69     1     0     0
SMALL
USER_CHARGES
****
Generated from the CSD

@<TRIPOS>ATOM
     1 C1       0.1298  -3.9318 -15.8288   C.ar      1 RES1   0.0000
     2 H2      -0.6364  -4.2741 -16.5160   H         1 RES1   0.0000
     3 C3       2.0626  -3.0173 -14.0795   C.ar      1 RES1   0.0000
     4 H4       2.8180  -2.6476 -13.3940   H         1 RES1   0.0000
     5 C5       0.3672  -4.6455 -14.6579   C.ar      1 RES1   0.0000
     6 C6       0.8479  -2.7889 -16.1333   C.ar      1 RES1   0.0000
     7 H7       0.6623  -2.2446 -17.0532   H         1 RES1   0.0000
     8 C8       1.7953  -2.3605 -15.2467   C.ar      1 RES1   0.0000
     9 C9       1.3473  -4.1658 -13.7936   C.ar      1 RES1   0.0000
    10 H10      1.5623  -4.7016 -12.8761   H         1 RES1   0.0000
    11 C11     -0.4051  -5.8830 -14.3126   C.2       1 RES1   0.0000
    12 F12      2.5016  -1.2341 -15.5371   F         1 RES1   0.0000
    13 N13     -1.3320  -7.9018 -14.2208   N.am      1 RES1   0.0000
    14 C14     -1.7300  -9.3327 -14.4457   C.3       1 RES1   0.0000
    15 H15     -1.2482  -9.6778 -15.3594   H         1 RES1   0.0000
    16 C16     -2.4135  -7.7609 -11.9431   C.3       1 RES1   0.0000
    17 H17     -3.0168  -7.0168 -11.4273   H         1 RES1   0.0000
    18 H18     -3.0689  -8.5721 -12.2536   H         1 RES1   0.0000
    19 H19     -1.6900  -8.1610 -11.2359   H         1 RES1   0.0000
    20 C20     -1.1594  -5.9688 -13.1688   C.2       1 RES1   0.0000
    21 C21     -1.4160  -4.9157 -12.1531   C.ar      1 RES1   0.0000
    22 O22     -0.0331  -7.5421 -16.0308   O.2       1 RES1   0.0000
    23 C23     -0.5248  -7.1342 -14.9867   C.2       1 RES1   0.0000
    24 N24     -1.7356  -7.1696 -13.0972   N.pl3     1 RES1   0.0000
    25 C25     -1.6189 -11.6678 -13.5175   C.3       1 RES1   0.0000
    26 H26     -1.3012 -12.2597 -12.6603   H         1 RES1   0.0000
    27 H27     -1.1234 -12.0341 -14.4153   H         1 RES1   0.0000
    28 C28     -3.6113 -10.9561 -14.8120   C.3       1 RES1   0.0000
    29 H29     -3.1769 -11.3136 -15.7444   H         1 RES1   0.0000
    30 H30     -4.6956 -11.0452 -14.8591   H         1 RES1   0.0000
    31 C31     -3.2385  -9.4944 -14.6157   C.3       1 RES1   0.0000
    32 H32     -3.5621  -8.9244 -15.4854   H         1 RES1   0.0000
    33 H33     -3.7397  -9.1153 -13.7263   H         1 RES1   0.0000
    34 C34     -1.2460 -10.2128 -13.2927   C.3       1 RES1   0.0000
    35 H35     -1.7035  -9.8679 -12.3665   H         1 RES1   0.0000
    36 H36     -0.1628 -10.1318 -13.2146   H         1 RES1   0.0000
    37 N37     -3.1001 -11.7876 -13.6829   N.4       1 RES1   1.0000
    38 H38     -3.5502 -11.4855 -12.8248   H         1 RES1   0.0000
    39 H39     -3.3313 -12.7596 -13.8622   H         1 RES1   0.0000
    40 N40     -1.5946  -3.6669 -12.6117   N.ar      1 RES1   0.0000
    41 C41     -1.6913  -4.1267  -9.9489   C.ar      1 RES1   0.0000
    42 H42     -1.7346  -4.3195  -8.8820   H         1 RES1   0.0000
    43 N43     -1.9592  -1.4491 -12.1568   N.pl3     1 RES1   0.0000
    44 H44     -1.8676  -1.2902 -13.1601   H         1 RES1   0.0000
    45 C45     -1.4588  -5.1926 -10.7945   C.ar      1 RES1   0.0000
    46 H46     -1.3141  -6.1984 -10.4141   H         1 RES1   0.0000
    47 C47     -1.8016  -2.7021 -11.7010   C.ar      1 RES1   0.0000
    48 N48     -1.8650  -2.8678 -10.3718   N.ar      1 RES1   0.0000
    49 C49     -2.1913  -0.2878 -11.2984   C.3       1 RES1   0.0000
    50 H50     -1.6616  -0.4422 -10.3456   H         1 RES1   0.0000
    51 C51     -3.6627  -0.0723 -11.0031   C.ar      1 RES1   0.0000
    52 C52     -1.5930   0.9289 -11.9947   C.3       1 RES1   0.0000
    53 H53     -1.7879   1.8348 -11.4246   H         1 RES1   0.0000
    54 H54     -0.5157   0.8223 -12.1036   H         1 RES1   0.0000
    55 H55     -2.0229   1.0540 -12.9863   H         1 RES1   0.0000
    56 C56     -6.3675   0.3325 -10.4735   C.ar      1 RES1   0.0000
    57 H57     -7.4211   0.4895 -10.2674   H         1 RES1   0.0000
    58 C58     -4.4422   0.7080 -11.8450   C.ar      1 RES1   0.0000
    59 H59     -3.9926   1.1662 -12.7197   H         1 RES1   0.0000
    60 C60     -4.2611  -0.6447  -9.8891   C.ar      1 RES1   0.0000
    61 H61     -3.6713  -1.2574  -9.2154   H         1 RES1   0.0000
    62 C62     -5.6058  -0.4430  -9.6273   C.ar      1 RES1   0.0000
    63 H63     -6.0602  -0.8973  -8.7532   H         1 RES1   0.0000
    64 C64     -5.7867   0.9080 -11.5820   C.ar      1 RES1   0.0000
    65 H65     -6.3837   1.5193 -12.2506   H         1 RES1   0.0000
@<TRIPOS>BOND
     1     1     5   ar
     2     1     6   ar
     3     1     2    1
     4     3     8   ar
     5     3     9   ar
     6     3     4    1
     7     5     9   ar
     8     5    11    1
     9     6     8   ar
    10     6     7    1
    11     8    12    1
    12     9    10    1
    13    11    20    2
    14    11    23    1
    15    13    14    1
    16    13    23   am
    17    13    24    1
    18    14    31    1
    19    14    34    1
    20    14    15    1
    21    16    24    1
    22    16    17    1
    23    16    18    1
    24    16    19    1
    25    20    21    1
    26    20    24    1
    27    21    40   ar
    28    21    45   ar
    29    22    23    2
    30    25    34    1
    31    25    37    1
    32    25    26    1
    33    25    27    1
    34    28    31    1
    35    28    37    1
    36    28    29    1
    37    28    30    1
    38    31    32    1
    39    31    33    1
    40    34    35    1
    41    34    36    1
    42    37    38    1
    43    37    39    1
    44    40    47   ar
    45    41    45   ar
    46    41    48   ar
    47    41    42    1
    48    43    47    1
    49    43    49    1
    50    43    44    1
    51    45    46    1
    52    47    48   ar
    53    49    51    1
    54    49    52    1
    55    49    50    1
    56    51    58   ar
    57    51    60   ar
    58    52    53    1
    59    52    54    1
    60    52    55    1
    61    56    62   ar
    62    56    64   ar
    63    56    57    1
    64    58    64   ar
    65    58    59    1
    66    60    62   ar
    67    60    61    1
    68    62    63    1
    69    64    65    1
@<TRIPOS>SUBSTRUCTURE
     1 RES1        1 GROUP             0 ****  ****    0  
@<TRIPOS>MOLECULE
LIGAND_00376
    65    69     1     0     0
SMALL
USER_CHARGES
****
Generated from the CSD

@<TRIPOS>ATOM
     1 C1       1.6769  -4.5963 -12.5453   C.ar      1 RES1   0.0000
     2 H2       2.2032  -4.8030 -13.4710   H         1 RES1   0.0000
     3 C3       0.3410  -4.0244 -10.1959   C.ar      1 RES1   0.0000
     4 H4      -0.1811  -3.7889  -9.2744   H         1 RES1   0.0000
     5 C5       0.4604  -5.2241 -12.2950   C.ar      1 RES1   0.0000
     6 C6       2.2283  -3.7078 -11.6393   C.ar      1 RES1   0.0000
     7 H7       3.1820  -3.2306 -11.8390   H         1 RES1   0.0000
     8 C8       1.5422  -3.4435 -10.4875   C.ar      1 RES1   0.0000
     9 C9      -0.1925  -4.9209 -11.1035   C.ar      1 RES1   0.0000
    10 H10     -1.1387  -5.3976 -10.8741   H         1 RES1   0.0000
    11 C11     -0.1512  -6.1860 -13.2685   C.2       1 RES1   0.0000
    12 F12      2.0759  -2.5664  -9.5943   F         1 RES1   0.0000
    13 N13     -1.2406  -7.9410 -14.1570   N.am      1 RES1   0.0000
    14 C14     -1.5106  -9.4109 -14.3092   C.3       1 RES1   0.0000
    15 H15     -1.2165  -9.7060 -15.3154   H         1 RES1   0.0000
    16 C16     -1.3876  -7.1276 -16.4280   C.3       1 RES1   0.0000
    17 H17     -0.7384  -7.0978 -17.3006   H         1 RES1   0.0000
    18 H18     -2.0590  -7.9772 -16.5346   H         1 RES1   0.0000
    19 H19     -1.9875  -6.2200 -16.4198   H         1 RES1   0.0000
    20 C20     -0.0279  -6.1202 -14.6126   C.2       1 RES1   0.0000
    21 C21      0.6269  -5.0726 -15.4374   C.ar      1 RES1   0.0000
    22 O22     -1.1910  -7.8605 -11.8611   O.2       1 RES1   0.0000
    23 C23     -0.9103  -7.3619 -12.9432   C.2       1 RES1   0.0000
    24 N24     -0.6005  -7.2381 -15.1994   N.3       1 RES1   0.0000
    25 C25     -0.9166 -11.7077 -13.4731   C.3       1 RES1   0.0000
    26 H26     -0.3424 -12.2497 -12.7232   H         1 RES1   0.0000
    27 H27     -0.6032 -12.0221 -14.4675   H         1 RES1   0.0000
    28 C28     -3.2234 -11.2473 -14.2596   C.3       1 RES1   0.0000
    29 H29     -2.9780 -11.5605 -15.2733   H         1 RES1   0.0000
    30 H30     -4.2713 -11.4635 -14.0565   H         1 RES1   0.0000
    31 C31     -2.9881  -9.7501 -14.1289   C.3       1 RES1   0.0000
    32 H32     -3.5682  -9.2306 -14.8901   H         1 RES1   0.0000
    33 H33     -3.3104  -9.4238 -13.1412   H         1 RES1   0.0000
    34 C34     -0.6737 -10.2168 -13.3149   C.3       1 RES1   0.0000
    35 H35     -0.9414  -9.9189 -12.3022   H         1 RES1   0.0000
    36 H36      0.3811 -10.0085 -13.4877   H         1 RES1   0.0000
    37 N37     -2.3715 -12.0020 -13.2940   N.4       1 RES1   1.0000
    38 H38     -2.6428 -11.7464 -12.3499   H         1 RES1   0.0000
    39 H39     -2.5232 -12.9961 -13.4322   H         1 RES1   0.0000
    40 N40      1.6492  -5.4674 -16.2125   N.ar      1 RES1   0.0000
    41 C41      0.9175  -2.8643 -16.2094   C.ar      1 RES1   0.0000
    42 H42      0.6145  -1.8224 -16.2076   H         1 RES1   0.0000
    43 N43      3.3019  -4.9139 -17.7026   N.pl3     1 RES1   0.0000
    44 H44      3.7599  -4.2115 -18.2833   H         1 RES1   0.0000
    45 C45      0.2208  -3.7465 -15.4083   C.ar      1 RES1   0.0000
    46 H46     -0.6032  -3.4174 -14.7839   H         1 RES1   0.0000
    47 C47      2.2656  -4.5244 -16.9431   C.ar      1 RES1   0.0000
    48 N48      1.9469  -3.2225 -16.9876   N.ar      1 RES1   0.0000
    49 C49      3.7754  -6.2946 -17.7974   C.3       1 RES1   0.0000
    50 H50      3.9972  -6.6615 -16.7833   H         1 RES1   0.0000
    51 C51      5.0291  -6.4191 -18.6407   C.ar      1 RES1   0.0000
    52 C52      2.6433  -7.1326 -18.3800   C.3       1 RES1   0.0000
    53 H53      3.0343  -8.0191 -18.8749   H         1 RES1   0.0000
    54 H54      1.9582  -7.4552 -17.5987   H         1 RES1   0.0000
    55 H55      2.0774  -6.5587 -19.1108   H         1 RES1   0.0000
    56 C56      7.3251  -6.6418 -20.2024   C.ar      1 RES1   0.0000
    57 H57      8.2197  -6.7280 -20.8103   H         1 RES1   0.0000
    58 C58      5.0231  -6.0282 -19.9719   C.ar      1 RES1   0.0000
    59 H59      4.1131  -5.6315 -20.4098   H         1 RES1   0.0000
    60 C60      6.2051  -6.9262 -18.1052   C.ar      1 RES1   0.0000
    61 H61      6.2335  -7.2400 -17.0671   H         1 RES1   0.0000
    62 C62      7.3457  -7.0360 -18.8826   C.ar      1 RES1   0.0000
    63 H63      8.2580  -7.4336 -18.4505   H         1 RES1   0.0000
    64 C64      6.1647  -6.1380 -20.7475   C.ar      1 RES1   0.0000
    65 H65      6.1450  -5.8265 -21.7865   H         1 RES1   0.0000
@<TRIPOS>BOND
     1     1     5   ar
     2     1     6   ar
     3     1     2    1
     4     3     8   ar
     5     3     9   ar
     6     3     4    1
     7     5     9   ar
     8     5    11    1
     9     6     8   ar
    10     6     7    1
    11     8    12    1
    12     9    10    1
    13    11    20    2
    14    11    23    1
    15    13    14    1
    16    13    23   am
    17    13    24    1
    18    14    31    1
    19    14    34    1
    20    14    15    1
    21    16    24    1
    22    16    17    1
    23    16    18    1
    24    16    19    1
    25    20    21    1
    26    20    24    1
    27    21    40   ar
    28    21    45   ar
    29    22    23    2
    30    25    34    1
    31    25    37    1
    32    25    26    1
    33    25    27    1
    34    28    31    1
    35    28    37    1
    36    28    29    1
    37    28    30    1
    38    31    32    1
    39    31    33    1
    40    34    35    1
    41    34    36    1
    42    37    38    1
    43    37    39    1
    44    40    47   ar
    45    41    45   ar
    46    41    48   ar
    47    41    42    1
    48    43    47    1
    49    43    49    1
    50    43    44    1
    51    45    46    1
    52    47    48   ar
    53    49    51    1
    54    49    52    1
    55    49    50    1
    56    51    58   ar
    57    51    60   ar
    58    52    53    1
    59    52    54    1
    60    52    55    1
    61    56    62   ar
    62    56    64   ar
    63    56    57    1
    64    58    64   ar
    65    58    59    1
    66    60    62   ar
    67    60    61    1
    68    62    63    1
    69    64    65    1
@<TRIPOS>SUBSTRUCTURE
     1 RES1        1 GROUP             0 ****  ****    0  
@<TRIPOS>MOLECULE
LIGAND_00377
    65    69     1     0     0
SMALL
USER_CHARGES
****
Generated from the CSD

@<TRIPOS>ATOM
     1 C1       1.4029  -4.5319 -12.9159   C.ar      1 RES1   0.0000
     2 H2       1.9605  -5.1661 -13.5965   H         1 RES1   0.0000
     3 C3      -0.0022  -2.8792 -11.2054   C.ar      1 RES1   0.0000
     4 H4      -0.5491  -2.2211 -10.5382   H         1 RES1   0.0000
     5 C5       0.0591  -4.8018 -12.6748   C.ar      1 RES1   0.0000
     6 C6       2.0432  -3.4660 -12.3089   C.ar      1 RES1   0.0000
     7 H7       3.0936  -3.2693 -12.4955   H         1 RES1   0.0000
     8 C8       1.3204  -2.6652 -11.4700   C.ar      1 RES1   0.0000
     9 C9      -0.6268  -3.9558 -11.8078   C.ar      1 RES1   0.0000
    10 H10     -1.6729  -4.1418 -11.5928   H         1 RES1   0.0000
    11 C11     -0.6490  -5.9504 -13.3279   C.2       1 RES1   0.0000
    12 F12      1.9423  -1.6118 -10.8738   F         1 RES1   0.0000
    13 N13     -1.2406  -7.9410 -14.1570   N.am      1 RES1   0.0000
    14 C14     -1.5106  -9.4109 -14.3092   C.3       1 RES1   0.0000
    15 H15     -1.2236  -9.7044 -15.3179   H         1 RES1   0.0000
    16 C16     -2.7924  -7.1753 -15.8925   C.3       1 RES1   0.0000
    17 H17     -2.7503  -6.2542 -16.4701   H         1 RES1   0.0000
    18 H18     -2.2733  -7.9502 -16.4528   H         1 RES1   0.0000
    19 H19     -3.8357  -7.4679 -15.7953   H         1 RES1   0.0000
    20 C20     -1.7295  -5.7802 -14.1304   C.2       1 RES1   0.0000
    21 C21     -2.3761  -4.5089 -14.5456   C.ar      1 RES1   0.0000
    22 O22      0.5406  -7.9760 -12.6915   O.2       1 RES1   0.0000
    23 C23     -0.3176  -7.3531 -13.3028   C.2       1 RES1   0.0000
    24 N24     -2.1828  -6.9895 -14.5752   N.3       1 RES1   0.0000
    25 C25     -0.9088 -11.7083 -13.4805   C.3       1 RES1   0.0000
    26 H26     -0.3288 -12.2510 -12.7355   H         1 RES1   0.0000
    27 H27     -0.6024 -12.0212 -14.4776   H         1 RES1   0.0000
    28 C28     -3.2217 -11.2487 -14.2496   C.3       1 RES1   0.0000
    29 H29     -2.9834 -11.5604 -15.2655   H         1 RES1   0.0000
    30 H30     -4.2678 -11.4659 -14.0392   H         1 RES1   0.0000
    31 C31     -2.9865  -9.7515 -14.1186   C.3       1 RES1   0.0000
    32 H32     -3.5725  -9.2314 -14.8749   H         1 RES1   0.0000
    33 H33     -3.3019  -9.4267 -13.1282   H         1 RES1   0.0000
    34 C34     -0.6659 -10.2175 -13.3221   C.3       1 RES1   0.0000
    35 H35     -0.9264  -9.9212 -12.3070   H         1 RES1   0.0000
    36 H36      0.3875 -10.0081 -13.5023   H         1 RES1   0.0000
    37 N37     -2.3622 -12.0040 -13.2913   N.4       1 RES1   1.0000
    38 H38     -2.6268 -11.7499 -12.3449   H         1 RES1   0.0000
    39 H39     -2.5141 -12.9980 -13.4297   H         1 RES1   0.0000
    40 N40     -3.6642  -4.3484 -14.2041   N.ar      1 RES1   0.0000
    41 C41     -2.4119  -2.4017 -15.6017   C.ar      1 RES1   0.0000
    42 H42     -1.9013  -1.6221 -16.1574   H         1 RES1   0.0000
    43 N43     -5.5611  -3.0618 -14.2740   N.pl3     1 RES1   0.0000
    44 H44     -6.0126  -2.1789 -14.5128   H         1 RES1   0.0000
    45 C45     -1.6982  -3.5333 -15.2618   C.ar      1 RES1   0.0000
    46 H46     -0.6576  -3.6545 -15.5439   H         1 RES1   0.0000
    47 C47     -4.2667  -3.2144 -14.5964   C.ar      1 RES1   0.0000
    48 N48     -3.6994  -2.2131 -15.2848   N.ar      1 RES1   0.0000
    49 C49     -6.3472  -4.0574 -13.5458   C.3       1 RES1   0.0000
    50 H50     -5.8880  -4.2151 -12.5576   H         1 RES1   0.0000
    51 C51     -6.4060  -5.3888 -14.2686   C.ar      1 RES1   0.0000
    52 C52     -7.7459  -3.4857 -13.3454   C.3       1 RES1   0.0000
    53 H53     -8.3672  -4.1752 -12.7777   H         1 RES1   0.0000
    54 H54     -7.7052  -2.5425 -12.8047   H         1 RES1   0.0000
    55 H55     -8.2284  -3.3061 -14.3039   H         1 RES1   0.0000
    56 C56     -6.5128  -7.8277 -15.6104   C.ar      1 RES1   0.0000
    57 H57     -6.5537  -8.7777 -16.1329   H         1 RES1   0.0000
    58 C58     -6.3405  -5.4408 -15.6535   C.ar      1 RES1   0.0000
    59 H59     -6.2471  -4.5205 -16.2205   H         1 RES1   0.0000
    60 C60     -6.5285  -6.5801 -13.5668   C.ar      1 RES1   0.0000
    61 H61     -6.5834  -6.5643 -12.4833   H         1 RES1   0.0000
    62 C62     -6.5811  -7.7917 -14.2351   C.ar      1 RES1   0.0000
    63 H63     -6.6763  -8.7150 -13.6733   H         1 RES1   0.0000
    64 C64     -6.3925  -6.6532 -16.3200   C.ar      1 RES1   0.0000
    65 H65     -6.3383  -6.6779 -17.4033   H         1 RES1   0.0000
@<TRIPOS>BOND
     1     1     5   ar
     2     1     6   ar
     3     1     2    1
     4     3     8   ar
     5     3     9   ar
     6     3     4    1
     7     5     9   ar
     8     5    11    1
     9     6     8   ar
    10     6     7    1
    11     8    12    1
    12     9    10    1
    13    11    20    2
    14    11    23    1
    15    13    14    1
    16    13    23   am
    17    13    24    1
    18    14    31    1
    19    14    34    1
    20    14    15    1
    21    16    24    1
    22    16    17    1
    23    16    18    1
    24    16    19    1
    25    20    21    1
    26    20    24    1
    27    21    40   ar
    28    21    45   ar
    29    22    23    2
    30    25    34    1
    31    25    37    1
    32    25    26    1
    33    25    27    1
    34    28    31    1
    35    28    37    1
    36    28    29    1
    37    28    30    1
    38    31    32    1
    39    31    33    1
    40    34    35    1
    41    34    36    1
    42    37    38    1
    43    37    39    1
    44    40    47   ar
    45    41    45   ar
    46    41    48   ar
    47    41    42    1
    48    43    47    1
    49    43    49    1
    50    43    44    1
    51    45    46    1
    52    47    48   ar
    53    49    51    1
    54    49    52    1
    55    49    50    1
    56    51    58   ar
    57    51    60   ar
    58    52    53    1
    59    52    54    1
    60    52    55    1
    61    56    62   ar
    62    56    64   ar
    63    56    57    1
    64    58    64   ar
    65    58    59    1
    66    60    62   ar
    67    60    61    1
    68    62    63    1
    69    64    65    1
@<TRIPOS>SUBSTRUCTURE
     1 RES1        1 GROUP             0 ****  ****    0  
@<TRIPOS>MOLECULE
LIGAND_00378
    65    69     1     0     0
SMALL
USER_CHARGES
****
Generated from the CSD

@<TRIPOS>ATOM
     1 C1       0.6731  -3.7889 -13.4930   C.ar      1 RES1   0.0000
     2 H2       0.5923  -3.8280 -14.5739   H         1 RES1   0.0000
     3 C3       0.8634  -3.6455 -10.7407   C.ar      1 RES1   0.0000
     4 H4       0.9360  -3.5782  -9.6602   H         1 RES1   0.0000
     5 C5       0.0985  -4.7987 -12.7268   C.ar      1 RES1   0.0000
     6 C6       1.3420  -2.7306 -12.9039   C.ar      1 RES1   0.0000
     7 H7       1.7951  -1.9531 -13.5099   H         1 RES1   0.0000
     8 C8       1.4168  -2.6865 -11.5402   C.ar      1 RES1   0.0000
     9 C9       0.2095  -4.7050 -11.3424   C.ar      1 RES1   0.0000
    10 H10     -0.2208  -5.4784 -10.7163   H         1 RES1   0.0000
    11 C11     -0.6324  -5.9494 -13.3505   C.2       1 RES1   0.0000
    12 F12      2.0684  -1.6456 -10.9538   F         1 RES1   0.0000
    13 N13     -1.2570  -7.9448 -14.1431   N.am      1 RES1   0.0000
    14 C14     -1.5409  -9.4142 -14.2721   C.3       1 RES1   0.0000
    15 H15     -1.2961  -9.7176 -15.2890   H         1 RES1   0.0000
    16 C16     -2.8420  -7.1872 -15.8519   C.3       1 RES1   0.0000
    17 H17     -2.3928  -6.5419 -16.6040   H         1 RES1   0.0000
    18 H18     -2.7359  -8.2181 -16.1834   H         1 RES1   0.0000
    19 H19     -3.9036  -6.9561 -15.7964   H         1 RES1   0.0000
    20 C20     -1.7295  -5.7802 -14.1304   C.2       1 RES1   0.0000
    21 C21     -2.3761  -4.5089 -14.5456   C.ar      1 RES1   0.0000
    22 O22      0.5566  -7.9764 -12.7177   O.2       1 RES1   0.0000
    23 C23     -0.3107  -7.3541 -13.3167   C.2       1 RES1   0.0000
    24 N24     -2.2015  -6.9911 -14.5509   N.3       1 RES1   0.0000
    25 C25     -0.9193 -11.7084 -13.4491   C.3       1 RES1   0.0000
    26 H26     -0.3130 -12.2484 -12.7233   H         1 RES1   0.0000
    27 H27     -0.6546 -12.0311 -14.4550   H         1 RES1   0.0000
    28 C28     -3.2584 -11.2414 -14.1291   C.3       1 RES1   0.0000
    29 H29     -3.0626 -11.5627 -15.1511   H         1 RES1   0.0000
    30 H30     -4.2965 -11.4508 -13.8754   H         1 RES1   0.0000
    31 C31     -3.0099  -9.7446 -14.0200   C.3       1 RES1   0.0000
    32 H32     -3.6228  -9.2272 -14.7566   H         1 RES1   0.0000
    33 H33     -3.2837  -9.4100 -13.0205   H         1 RES1   0.0000
    34 C34     -0.6620 -10.2177 -13.3128   C.3       1 RES1   0.0000
    35 H35     -0.8801  -9.9117 -12.2907   H         1 RES1   0.0000
    36 H36      0.3845 -10.0161 -13.5366   H         1 RES1   0.0000
    37 N37     -2.3656 -11.9940 -13.1996   N.4       1 RES1   1.0000
    38 H38     -2.5907 -11.7307 -12.2455   H         1 RES1   0.0000
    39 H39     -2.5283 -12.9882 -13.3236   H         1 RES1   0.0000
    40 N40     -2.4174  -4.2560 -15.8631   N.ar      1 RES1   0.0000
    41 C41     -3.4658  -2.4591 -14.1358   C.ar      1 RES1   0.0000
    42 H42     -3.8898  -1.7453 -13.4373   H         1 RES1   0.0000
    43 N43     -2.9994  -2.8334 -17.5649   N.pl3     1 RES1   0.0000
    44 H44     -3.4755  -1.9862 -17.8744   H         1 RES1   0.0000
    45 C45     -2.9034  -3.6126 -13.6274   C.ar      1 RES1   0.0000
    46 H46     -2.8734  -3.8073 -12.5605   H         1 RES1   0.0000
    47 C47     -2.9764  -3.0976 -16.2487   C.ar      1 RES1   0.0000
    48 N48     -3.5160  -2.1714 -15.4429   N.ar      1 RES1   0.0000
    49 C49     -2.4393  -3.7162 -18.5879   C.3       1 RES1   0.0000
    50 H50     -2.9643  -4.6830 -18.5451   H         1 RES1   0.0000
    51 C51     -0.9566  -3.9629 -18.3897   C.ar      1 RES1   0.0000
    52 C52     -2.7071  -3.0782 -19.9461   C.3       1 RES1   0.0000
    53 H53     -2.3381  -3.7118 -20.7499   H         1 RES1   0.0000
    54 H54     -3.7733  -2.9242 -20.0984   H         1 RES1   0.0000
    55 H55     -2.2113  -2.1127 -20.0214   H         1 RES1   0.0000
    56 C56      1.7691  -4.4022 -18.0189   C.ar      1 RES1   0.0000
    57 H57      2.8306  -4.5737 -17.8738   H         1 RES1   0.0000
    58 C58     -0.1553  -2.9960 -17.7998   C.ar      1 RES1   0.0000
    59 H59     -0.5957  -2.0575 -17.4796   H         1 RES1   0.0000
    60 C60     -0.3684  -5.1537 -18.7933   C.ar      1 RES1   0.0000
    61 H61     -0.9745  -5.9239 -19.2586   H         1 RES1   0.0000
    62 C62      0.9866  -5.3708 -18.6080   C.ar      1 RES1   0.0000
    63 H63      1.4326  -6.3066 -18.9279   H         1 RES1   0.0000
    64 C64      1.1991  -3.2151 -17.6146   C.ar      1 RES1   0.0000
    65 H65      1.8125  -2.4502 -17.1501   H         1 RES1   0.0000
@<TRIPOS>BOND
     1     1     5   ar
     2     1     6   ar
     3     1     2    1
     4     3     8   ar
     5     3     9   ar
     6     3     4    1
     7     5     9   ar
     8     5    11    1
     9     6     8   ar
    10     6     7    1
    11     8    12    1
    12     9    10    1
    13    11    20    2
    14    11    23    1
    15    13    14    1
    16    13    23   am
    17    13    24    1
    18    14    31    1
    19    14    34    1
    20    14    15    1
    21    16    24    1
    22    16    17    1
    23    16    18    1
    24    16    19    1
    25    20    21    1
    26    20    24    1
    27    21    40   ar
    28    21    45   ar
    29    22    23    2
    30    25    34    1
    31    25    37    1
    32    25    26    1
    33    25    27    1
    34    28    31    1
    35    28    37    1
    36    28    29    1
    37    28    30    1
    38    31    32    1
    39    31    33    1
    40    34    35    1
    41    34    36    1
    42    37    38    1
    43    37    39    1
    44    40    47   ar
    45    41    45   ar
    46    41    48   ar
    47    41    42    1
    48    43    47    1
    49    43    49    1
    50    43    44    1
    51    45    46    1
    52    47    48   ar
    53    49    51    1
    54    49    52    1
    55    49    50    1
    56    51    58   ar
    57    51    60   ar
    58    52    53    1
    59    52    54    1
    60    52    55    1
    61    56    62   ar
    62    56    64   ar
    63    56    57    1
    64    58    64   ar
    65    58    59    1
    66    60    62   ar
    67    60    61    1
    68    62    63    1
    69    64    65    1
@<TRIPOS>SUBSTRUCTURE
     1 RES1        1 GROUP             0 ****  ****    0  
@<TRIPOS>MOLECULE
LIGAND_00379
    65    69     1     0     0
SMALL
USER_CHARGES
****
Generated from the CSD

@<TRIPOS>ATOM
     1 C1       1.4029  -4.5319 -12.9159   C.ar      1 RES1   0.0000
     2 H2       1.9605  -5.1661 -13.5965   H         1 RES1   0.0000
     3 C3      -0.0022  -2.8792 -11.2054   C.ar      1 RES1   0.0000
     4 H4      -0.5491  -2.2211 -10.5382   H         1 RES1   0.0000
     5 C5       0.0591  -4.8018 -12.6748   C.ar      1 RES1   0.0000
     6 C6       2.0432  -3.4660 -12.3089   C.ar      1 RES1   0.0000
     7 H7       3.0936  -3.2693 -12.4955   H         1 RES1   0.0000
     8 C8       1.3204  -2.6652 -11.4700   C.ar      1 RES1   0.0000
     9 C9      -0.6268  -3.9558 -11.8078   C.ar      1 RES1   0.0000
    10 H10     -1.6729  -4.1418 -11.5928   H         1 RES1   0.0000
    11 C11     -0.6490  -5.9504 -13.3279   C.2       1 RES1   0.0000
    12 F12      1.9423  -1.6118 -10.8738   F         1 RES1   0.0000
    13 N13     -1.2406  -7.9410 -14.1570   N.am      1 RES1   0.0000
    14 C14     -1.5106  -9.4109 -14.3092   C.3       1 RES1   0.0000
    15 H15     -1.2236  -9.7044 -15.3179   H         1 RES1   0.0000
    16 C16     -2.7924  -7.1753 -15.8925   C.3       1 RES1   0.0000
    17 H17     -2.7489  -6.2546 -16.4707   H         1 RES1   0.0000
    18 H18     -2.2743  -7.9513 -16.4521   H         1 RES1   0.0000
    19 H19     -3.8362  -7.4663 -15.7954   H         1 RES1   0.0000
    20 C20     -1.7295  -5.7802 -14.1304   C.2       1 RES1   0.0000
    21 C21     -2.3761  -4.5089 -14.5456   C.ar      1 RES1   0.0000
    22 O22      0.5406  -7.9760 -12.6915   O.2       1 RES1   0.0000
    23 C23     -0.3176  -7.3531 -13.3028   C.2       1 RES1   0.0000
    24 N24     -2.1828  -6.9895 -14.5752   N.3       1 RES1   0.0000
    25 C25     -0.9088 -11.7083 -13.4805   C.3       1 RES1   0.0000
    26 H26     -0.3288 -12.2510 -12.7355   H         1 RES1   0.0000
    27 H27     -0.6024 -12.0212 -14.4776   H         1 RES1   0.0000
    28 C28     -3.2217 -11.2487 -14.2496   C.3       1 RES1   0.0000
    29 H29     -2.9834 -11.5604 -15.2655   H         1 RES1   0.0000
    30 H30     -4.2678 -11.4659 -14.0392   H         1 RES1   0.0000
    31 C31     -2.9865  -9.7515 -14.1186   C.3       1 RES1   0.0000
    32 H32     -3.5725  -9.2314 -14.8749   H         1 RES1   0.0000
    33 H33     -3.3019  -9.4267 -13.1282   H         1 RES1   0.0000
    34 C34     -0.6659 -10.2175 -13.3221   C.3       1 RES1   0.0000
    35 H35     -0.9264  -9.9212 -12.3070   H         1 RES1   0.0000
    36 H36      0.3875 -10.0081 -13.5023   H         1 RES1   0.0000
    37 N37     -2.3622 -12.0040 -13.2913   N.4       1 RES1   1.0000
    38 H38     -2.6268 -11.7499 -12.3449   H         1 RES1   0.0000
    39 H39     -2.5141 -12.9980 -13.4297   H         1 RES1   0.0000
    40 N40     -3.6642  -4.3484 -14.2041   N.ar      1 RES1   0.0000
    41 C41     -2.4119  -2.4017 -15.6017   C.ar      1 RES1   0.0000
    42 H42     -1.9013  -1.6221 -16.1574   H         1 RES1   0.0000
    43 N43     -5.5611  -3.0618 -14.2740   N.pl3     1 RES1   0.0000
    44 H44     -6.0321  -3.8366 -13.8070   H         1 RES1   0.0000
    45 C45     -1.6982  -3.5333 -15.2618   C.ar      1 RES1   0.0000
    46 H46     -0.6576  -3.6545 -15.5439   H         1 RES1   0.0000
    47 C47     -4.2667  -3.2144 -14.5964   C.ar      1 RES1   0.0000
    48 N48     -3.6994  -2.2131 -15.2848   N.ar      1 RES1   0.0000
    49 C49     -6.3547  -1.8790 -14.6066   C.3       1 RES1   0.0000
    50 H50     -6.3804  -1.7684 -15.7018   H         1 RES1   0.0000
    51 C51     -5.7808  -0.6105 -14.0067   C.ar      1 RES1   0.0000
    52 C52     -7.7752  -2.1206 -14.1097   C.3       1 RES1   0.0000
    53 H53     -8.4203  -1.2812 -14.3607   H         1 RES1   0.0000
    54 H54     -8.1959  -3.0175 -14.5596   H         1 RES1   0.0000
    55 H55     -7.7881  -2.2459 -13.0290   H         1 RES1   0.0000
    56 C56     -4.7204   1.7121 -12.8925   C.ar      1 RES1   0.0000
    57 H57     -4.3068   2.6167 -12.4591   H         1 RES1   0.0000
    58 C58     -5.0750  -0.6536 -12.8130   C.ar      1 RES1   0.0000
    59 H59     -4.9350  -1.6033 -12.3073   H         1 RES1   0.0000
    60 C60     -5.9486   0.6173 -14.6322   C.ar      1 RES1   0.0000
    61 H61     -6.4983   0.6762 -15.5657   H         1 RES1   0.0000
    62 C62     -5.4206   1.7709 -14.0774   C.ar      1 RES1   0.0000
    63 H63     -5.5591   2.7236 -14.5778   H         1 RES1   0.0000
    64 C64     -4.5472   0.5008 -12.2601   C.ar      1 RES1   0.0000
    65 H65     -3.9961   0.4508 -11.3269   H         1 RES1   0.0000
@<TRIPOS>BOND
     1     1     5   ar
     2     1     6   ar
     3     1     2    1
     4     3     8   ar
     5     3     9   ar
     6     3     4    1
     7     5     9   ar
     8     5    11    1
     9     6     8   ar
    10     6     7    1
    11     8    12    1
    12     9    10    1
    13    11    20    2
    14    11    23    1
    15    13    14    1
    16    13    23   am
    17    13    24    1
    18    14    31    1
    19    14    34    1
    20    14    15    1
    21    16    24    1
    22    16    17    1
    23    16    18    1
    24    16    19    1
    25    20    21    1
    26    20    24    1
    27    21    40   ar
    28    21    45   ar
    29    22    23    2
    30    25    34    1
    31    25    37    1
    32    25    26    1
    33    25    27    1
    34    28    31    1
    35    28    37    1
    36    28    29    1
    37    28    30    1
    38    31    32    1
    39    31    33    1
    40    34    35    1
    41    34    36    1
    42    37    38    1
    43    37    39    1
    44    40    47   ar
    45    41    45   ar
    46    41    48   ar
    47    41    42    1
    48    43    47    1
    49    43    49    1
    50    43    44    1
    51    45    46    1
    52    47    48   ar
    53    49    51    1
    54    49    52    1
    55    49    50    1
    56    51    58   ar
    57    51    60   ar
    58    52    53    1
    59    52    54    1
    60    52    55    1
    61    56    62   ar
    62    56    64   ar
    63    56    57    1
    64    58    64   ar
    65    58    59    1
    66    60    62   ar
    67    60    61    1
    68    62    63    1
    69    64    65    1
@<TRIPOS>SUBSTRUCTURE
     1 RES1        1 GROUP             0 ****  ****    0  
@<TRIPOS>MOLECULE
LIGAND_00380
    65    69     1     0     0
SMALL
USER_CHARGES
****
Generated from the CSD

@<TRIPOS>ATOM
     1 C1       0.6732  -3.7889 -13.4931   C.ar      1 RES1   0.0000
     2 H2       0.5923  -3.8280 -14.5740   H         1 RES1   0.0000
     3 C3       0.8636  -3.6455 -10.7408   C.ar      1 RES1   0.0000
     4 H4       0.9361  -3.5781  -9.6603   H         1 RES1   0.0000
     5 C5       0.0986  -4.7987 -12.7269   C.ar      1 RES1   0.0000
     6 C6       1.3421  -2.7306 -12.9040   C.ar      1 RES1   0.0000
     7 H7       1.7951  -1.9531 -13.5101   H         1 RES1   0.0000
     8 C8       1.4169  -2.6865 -11.5403   C.ar      1 RES1   0.0000
     9 C9       0.2096  -4.7050 -11.3425   C.ar      1 RES1   0.0000
    10 H10     -0.2207  -5.4783 -10.7164   H         1 RES1   0.0000
    11 C11     -0.6324  -5.9494 -13.3505   C.2       1 RES1   0.0000
    12 F12      2.0686  -1.6456 -10.9540   F         1 RES1   0.0000
    13 N13     -1.2570  -7.9448 -14.1431   N.am      1 RES1   0.0000
    14 C14     -1.5409  -9.4143 -14.2721   C.3       1 RES1   0.0000
    15 H15     -1.2961  -9.7176 -15.2889   H         1 RES1   0.0000
    16 C16     -2.8420  -7.1873 -15.8518   C.3       1 RES1   0.0000
    17 H17     -2.3931  -6.5417 -16.6039   H         1 RES1   0.0000
    18 H18     -2.7357  -8.2181 -16.1835   H         1 RES1   0.0000
    19 H19     -3.9038  -6.9564 -15.7962   H         1 RES1   0.0000
    20 C20     -1.7295  -5.7802 -14.1304   C.2       1 RES1   0.0000
    21 C21     -2.3761  -4.5089 -14.5456   C.ar      1 RES1   0.0000
    22 O22      0.5566  -7.9764 -12.7177   O.2       1 RES1   0.0000
    23 C23     -0.3107  -7.3541 -13.3167   C.2       1 RES1   0.0000
    24 N24     -2.2015  -6.9911 -14.5509   N.3       1 RES1   0.0000
    25 C25     -0.9193 -11.7084 -13.4490   C.3       1 RES1   0.0000
    26 H26     -0.3130 -12.2484 -12.7232   H         1 RES1   0.0000
    27 H27     -0.6547 -12.0311 -14.4549   H         1 RES1   0.0000
    28 C28     -3.2585 -11.2414 -14.1290   C.3       1 RES1   0.0000
    29 H29     -3.0627 -11.5627 -15.1510   H         1 RES1   0.0000
    30 H30     -4.2966 -11.4508 -13.8753   H         1 RES1   0.0000
    31 C31     -3.0099  -9.7446 -14.0200   C.3       1 RES1   0.0000
    32 H32     -3.6228  -9.2272 -14.7566   H         1 RES1   0.0000
    33 H33     -3.2838  -9.4100 -13.0205   H         1 RES1   0.0000
    34 C34     -0.6621 -10.2177 -13.3127   C.3       1 RES1   0.0000
    35 H35     -0.8802  -9.9117 -12.2906   H         1 RES1   0.0000
    36 H36      0.3844 -10.0161 -13.5365   H         1 RES1   0.0000
    37 N37     -2.3656 -11.9940 -13.1995   N.4       1 RES1   1.0000
    38 H38     -2.5908 -11.7307 -12.2454   H         1 RES1   0.0000
    39 H39     -2.5284 -12.9882 -13.3234   H         1 RES1   0.0000
    40 N40     -2.4174  -4.2560 -15.8631   N.ar      1 RES1   0.0000
    41 C41     -3.4658  -2.4591 -14.1358   C.ar      1 RES1   0.0000
    42 H42     -3.8898  -1.7453 -13.4373   H         1 RES1   0.0000
    43 N43     -2.9994  -2.8334 -17.5649   N.pl3     1 RES1   0.0000
    44 H44     -2.5382  -3.4917 -18.1929   H         1 RES1   0.0000
    45 C45     -2.9034  -3.6126 -13.6274   C.ar      1 RES1   0.0000
    46 H46     -2.8734  -3.8073 -12.5605   H         1 RES1   0.0000
    47 C47     -2.9764  -3.0976 -16.2487   C.ar      1 RES1   0.0000
    48 N48     -3.5160  -2.1714 -15.4429   N.ar      1 RES1   0.0000
    49 C49     -3.5894  -1.6292 -18.1490   C.3       1 RES1   0.0000
    50 H50     -3.0603  -0.7491 -17.7516   H         1 RES1   0.0000
    51 C51     -5.0642  -1.4927 -17.8251   C.ar      1 RES1   0.0000
    52 C52     -3.3674  -1.6896 -19.6557   C.3       1 RES1   0.0000
    53 H53     -3.7601  -0.7981 -20.1401   H         1 RES1   0.0000
    54 H54     -2.3071  -1.7625 -19.8886   H         1 RES1   0.0000
    55 H55     -3.8683  -2.5556 -20.0834   H         1 RES1   0.0000
    56 C56     -7.7752  -1.2573 -17.2293   C.ar      1 RES1   0.0000
    57 H57     -8.8310  -1.1655 -16.9965   H         1 RES1   0.0000
    58 C58     -5.8490  -2.6202 -17.6307   C.ar      1 RES1   0.0000
    59 H59     -5.4014  -3.6052 -17.7123   H         1 RES1   0.0000
    60 C60     -5.6615  -0.2442 -17.7183   C.ar      1 RES1   0.0000
    61 H61     -5.0683   0.6518 -17.8679   H         1 RES1   0.0000
    62 C62     -7.0091  -0.1288 -17.4217   C.ar      1 RES1   0.0000
    63 H63     -7.4624   0.8536 -17.3407   H         1 RES1   0.0000
    64 C64     -7.1961  -2.5028 -17.3335   C.ar      1 RES1   0.0000
    65 H65     -7.7965  -3.3938 -17.1825   H         1 RES1   0.0000
@<TRIPOS>BOND
     1     1     5   ar
     2     1     6   ar
     3     1     2    1
     4     3     8   ar
     5     3     9   ar
     6     3     4    1
     7     5     9   ar
     8     5    11    1
     9     6     8   ar
    10     6     7    1
    11     8    12    1
    12     9    10    1
    13    11    20    2
    14    11    23    1
    15    13    14    1
    16    13    23   am
    17    13    24    1
    18    14    31    1
    19    14    34    1
    20    14    15    1
    21    16    24    1
    22    16    17    1
    23    16    18    1
    24    16    19    1
    25    20    21    1
    26    20    24    1
    27    21    40   ar
    28    21    45   ar
    29    22    23    2
    30    25    34    1
    31    25    37    1
    32    25    26    1
    33    25    27    1
    34    28    31    1
    35    28    37    1
    36    28    29    1
    37    28    30    1
    38    31    32    1
    39    31    33    1
    40    34    35    1
    41    34    36    1
    42    37    38    1
    43    37    39    1
    44    40    47   ar
    45    41    45   ar
    46    41    48   ar
    47    41    42    1
    48    43    47    1
    49    43    49    1
    50    43    44    1
    51    45    46    1
    52    47    48   ar
    53    49    51    1
    54    49    52    1
    55    49    50    1
    56    51    58   ar
    57    51    60   ar
    58    52    53    1
    59    52    54    1
    60    52    55    1
    61    56    62   ar
    62    56    64   ar
    63    56    57    1
    64    58    64   ar
    65    58    59    1
    66    60    62   ar
    67    60    61    1
    68    62    63    1
    69    64    65    1
@<TRIPOS>SUBSTRUCTURE
     1 RES1        1 GROUP             0 ****  ****    0  
@<TRIPOS>MOLECULE
LIGAND_00381
    65    69     1     0     0
SMALL
USER_CHARGES
****
Generated from the CSD

@<TRIPOS>ATOM
     1 C1       0.1907  -3.7757 -12.6887   C.ar      1 RES1   0.0000
     2 H2       0.8009  -3.9161 -13.5744   H         1 RES1   0.0000
     3 C3      -1.3717  -3.3743 -10.4460   C.ar      1 RES1   0.0000
     4 H4      -1.9859  -3.2056  -9.5677   H         1 RES1   0.0000
     5 C5      -0.8090  -4.6977 -12.3933   C.ar      1 RES1   0.0000
     6 C6       0.4200  -2.6781 -11.8781   C.ar      1 RES1   0.0000
     7 H7       1.2081  -1.9699 -12.1114   H         1 RES1   0.0000
     8 C8      -0.3713  -2.5056 -10.7775   C.ar      1 RES1   0.0000
     9 C9      -1.5815  -4.4746 -11.2570   C.ar      1 RES1   0.0000
    10 H10     -2.3642  -5.1771 -10.9941   H         1 RES1   0.0000
    11 C11     -1.0716  -5.8895 -13.2639   C.2       1 RES1   0.0000
    12 F12     -0.1550  -1.4253  -9.9787   F         1 RES1   0.0000
    13 N13     -1.1666  -7.9322 -14.1684   N.am      1 RES1   0.0000
    14 C14     -1.3535  -9.4101 -14.3619   C.3       1 RES1   0.0000
    15 H15     -0.8534  -9.6957 -15.2862   H         1 RES1   0.0000
    16 C16     -1.4684  -7.2875 -16.5134   C.3       1 RES1   0.0000
    17 H17     -1.3959  -6.3601 -17.0778   H         1 RES1   0.0000
    18 H18     -0.5472  -7.8470 -16.6620   H         1 RES1   0.0000
    19 H19     -2.2900  -7.8711 -16.9235   H         1 RES1   0.0000
    20 C20     -1.5187  -5.7765 -14.5398   C.2       1 RES1   0.0000
    21 C21     -1.7851  -4.5377 -15.3151   C.ar      1 RES1   0.0000
    22 O22     -0.5009  -7.8640 -11.9606   O.2       1 RES1   0.0000
    23 C23     -0.8549  -7.2860 -12.9799   C.2       1 RES1   0.0000
    24 N24     -1.6872  -7.0142 -15.0926   N.3       1 RES1   0.0000
    25 C25     -0.8674 -11.6862 -13.4079   C.3       1 RES1   0.0000
    26 H26     -0.4392 -12.2092 -12.5541   H         1 RES1   0.0000
    27 H27     -0.3501 -11.9904 -14.3167   H         1 RES1   0.0000
    28 C28     -2.9819 -11.3013 -14.6460   C.3       1 RES1   0.0000
    29 H29     -2.5274 -11.6065 -15.5874   H         1 RES1   0.0000
    30 H30     -4.0417 -11.5514 -14.6567   H         1 RES1   0.0000
    31 C31     -2.8254  -9.7972 -14.4806   C.3       1 RES1   0.0000
    32 H32     -3.2565  -9.2969 -15.3466   H         1 RES1   0.0000
    33 H33     -3.3505  -9.4814 -13.5803   H         1 RES1   0.0000
    34 C34     -0.7090 -10.1882 -13.2140   C.3       1 RES1   0.0000
    35 H35     -1.1846  -9.8990 -12.2780   H         1 RES1   0.0000
    36 H36      0.3518  -9.9457 -13.1722   H         1 RES1   0.0000
    37 N37     -2.3185 -12.0277 -13.5236   N.4       1 RES1   1.0000
    38 H38     -2.7824 -11.7809 -12.6552   H         1 RES1   0.0000
    39 H39     -2.4074 -13.0262 -13.6828   H         1 RES1   0.0000
    40 N40     -3.0605  -4.3081 -15.6646   N.ar      1 RES1   0.0000
    41 C41     -1.1457  -2.5505 -16.4102   C.ar      1 RES1   0.0000
    42 H42     -0.3729  -1.8465 -16.7008   H         1 RES1   0.0000
    43 N43     -4.5819  -2.9846 -16.7564   N.pl3     1 RES1   0.0000
    44 H44     -4.7931  -2.1191 -17.2530   H         1 RES1   0.0000
    45 C45     -0.7740  -3.6600 -15.6778   C.ar      1 RES1   0.0000
    46 H46      0.2601  -3.8378 -15.4015   H         1 RES1   0.0000
    47 C47     -3.3098  -3.2046 -16.3879   C.ar      1 RES1   0.0000
    48 N48     -2.4066  -2.2954 -16.7828   N.ar      1 RES1   0.0000
    49 C49     -5.6945  -3.8782 -16.4351   C.3       1 RES1   0.0000
    50 H50     -5.7875  -3.9458 -15.3401   H         1 RES1   0.0000
    51 C51     -5.4927  -5.2748 -16.9895   C.ar      1 RES1   0.0000
    52 C52     -6.9670  -3.2511 -16.9926   C.3       1 RES1   0.0000
    53 H53     -7.8353  -3.8613 -16.7529   H         1 RES1   0.0000
    54 H54     -7.1248  -2.2587 -16.5756   H         1 RES1   0.0000
    55 H55     -6.9071  -3.1580 -18.0749   H         1 RES1   0.0000
    56 C56     -5.1134  -7.8351 -18.0197   C.ar      1 RES1   0.0000
    57 H57     -4.9652  -8.8324 -18.4204   H         1 RES1   0.0000
    58 C58     -4.7654  -5.4709 -18.1546   C.ar      1 RES1   0.0000
    59 H59     -4.3398  -4.6167 -18.6708   H         1 RES1   0.0000
    60 C60     -6.0293  -6.3838 -16.3499   C.ar      1 RES1   0.0000
    61 H61     -6.6033  -6.2551 -15.4383   H         1 RES1   0.0000
    62 C62     -5.8397  -7.6559 -16.8630   C.ar      1 RES1   0.0000
    63 H63     -6.2645  -8.5135 -16.3520   H         1 RES1   0.0000
    64 C64     -4.5761  -6.7436 -18.6658   C.ar      1 RES1   0.0000
    65 H65     -4.0035  -6.8811 -19.5769   H         1 RES1   0.0000
@<TRIPOS>BOND
     1     1     5   ar
     2     1     6   ar
     3     1     2    1
     4     3     8   ar
     5     3     9   ar
     6     3     4    1
     7     5     9   ar
     8     5    11    1
     9     6     8   ar
    10     6     7    1
    11     8    12    1
    12     9    10    1
    13    11    20    2
    14    11    23    1
    15    13    14    1
    16    13    23   am
    17    13    24    1
    18    14    31    1
    19    14    34    1
    20    14    15    1
    21    16    24    1
    22    16    17    1
    23    16    18    1
    24    16    19    1
    25    20    21    1
    26    20    24    1
    27    21    40   ar
    28    21    45   ar
    29    22    23    2
    30    25    34    1
    31    25    37    1
    32    25    26    1
    33    25    27    1
    34    28    31    1
    35    28    37    1
    36    28    29    1
    37    28    30    1
    38    31    32    1
    39    31    33    1
    40    34    35    1
    41    34    36    1
    42    37    38    1
    43    37    39    1
    44    40    47   ar
    45    41    45   ar
    46    41    48   ar
    47    41    42    1
    48    43    47    1
    49    43    49    1
    50    43    44    1
    51    45    46    1
    52    47    48   ar
    53    49    51    1
    54    49    52    1
    55    49    50    1
    56    51    58   ar
    57    51    60   ar
    58    52    53    1
    59    52    54    1
    60    52    55    1
    61    56    62   ar
    62    56    64   ar
    63    56    57    1
    64    58    64   ar
    65    58    59    1
    66    60    62   ar
    67    60    61    1
    68    62    63    1
    69    64    65    1
@<TRIPOS>SUBSTRUCTURE
     1 RES1        1 GROUP             0 ****  ****    0  
@<TRIPOS>MOLECULE
LIGAND_00382
    65    69     1     0     0
SMALL
USER_CHARGES
****
Generated from the CSD

@<TRIPOS>ATOM
     1 C1       0.1908  -3.7758 -12.6887   C.ar      1 RES1   0.0000
     2 H2       0.8010  -3.9162 -13.5744   H         1 RES1   0.0000
     3 C3      -1.3716  -3.3743 -10.4461   C.ar      1 RES1   0.0000
     4 H4      -1.9858  -3.2056  -9.5677   H         1 RES1   0.0000
     5 C5      -0.8090  -4.6977 -12.3933   C.ar      1 RES1   0.0000
     6 C6       0.4201  -2.6781 -11.8781   C.ar      1 RES1   0.0000
     7 H7       1.2082  -1.9700 -12.1114   H         1 RES1   0.0000
     8 C8      -0.3712  -2.5056 -10.7775   C.ar      1 RES1   0.0000
     9 C9      -1.5815  -4.4746 -11.2570   C.ar      1 RES1   0.0000
    10 H10     -2.3642  -5.1770 -10.9941   H         1 RES1   0.0000
    11 C11     -1.0716  -5.8895 -13.2639   C.2       1 RES1   0.0000
    12 F12     -0.1549  -1.4253  -9.9788   F         1 RES1   0.0000
    13 N13     -1.1667  -7.9322 -14.1684   N.am      1 RES1   0.0000
    14 C14     -1.3535  -9.4101 -14.3619   C.3       1 RES1   0.0000
    15 H15     -0.8535  -9.6957 -15.2863   H         1 RES1   0.0000
    16 C16     -1.4685  -7.2875 -16.5134   C.3       1 RES1   0.0000
    17 H17     -1.3960  -6.3601 -17.0778   H         1 RES1   0.0000
    18 H18     -0.5473  -7.8471 -16.6621   H         1 RES1   0.0000
    19 H19     -2.2900  -7.8712 -16.9234   H         1 RES1   0.0000
    20 C20     -1.5187  -5.7765 -14.5398   C.2       1 RES1   0.0000
    21 C21     -1.7851  -4.5377 -15.3151   C.ar      1 RES1   0.0000
    22 O22     -0.5009  -7.8640 -11.9606   O.2       1 RES1   0.0000
    23 C23     -0.8549  -7.2860 -12.9799   C.2       1 RES1   0.0000
    24 N24     -1.6872  -7.0142 -15.0926   N.3       1 RES1   0.0000
    25 C25     -0.8674 -11.6862 -13.4080   C.3       1 RES1   0.0000
    26 H26     -0.4391 -12.2092 -12.5541   H         1 RES1   0.0000
    27 H27     -0.3502 -11.9904 -14.3167   H         1 RES1   0.0000
    28 C28     -2.9819 -11.3013 -14.6459   C.3       1 RES1   0.0000
    29 H29     -2.5275 -11.6065 -15.5874   H         1 RES1   0.0000
    30 H30     -4.0418 -11.5514 -14.6566   H         1 RES1   0.0000
    31 C31     -2.8255  -9.7972 -14.4806   C.3       1 RES1   0.0000
    32 H32     -3.2566  -9.2969 -15.3465   H         1 RES1   0.0000
    33 H33     -3.3505  -9.4814 -13.5802   H         1 RES1   0.0000
    34 C34     -0.7090 -10.1882 -13.2140   C.3       1 RES1   0.0000
    35 H35     -1.1845  -9.8990 -12.2780   H         1 RES1   0.0000
    36 H36      0.3519  -9.9457 -13.1723   H         1 RES1   0.0000
    37 N37     -2.3185 -12.0277 -13.5235   N.4       1 RES1   1.0000
    38 H38     -2.7824 -11.7809 -12.6552   H         1 RES1   0.0000
    39 H39     -2.4074 -13.0262 -13.6827   H         1 RES1   0.0000
    40 N40     -3.0605  -4.3081 -15.6646   N.ar      1 RES1   0.0000
    41 C41     -1.1457  -2.5505 -16.4102   C.ar      1 RES1   0.0000
    42 H42     -0.3729  -1.8465 -16.7008   H         1 RES1   0.0000
    43 N43     -4.5819  -2.9846 -16.7564   N.pl3     1 RES1   0.0000
    44 H44     -5.2767  -3.6942 -16.5237   H         1 RES1   0.0000
    45 C45     -0.7740  -3.6600 -15.6778   C.ar      1 RES1   0.0000
    46 H46      0.2601  -3.8378 -15.4015   H         1 RES1   0.0000
    47 C47     -3.3098  -3.2046 -16.3879   C.ar      1 RES1   0.0000
    48 N48     -2.4066  -2.2954 -16.7828   N.ar      1 RES1   0.0000
    49 C49     -5.0230  -1.8213 -17.5256   C.3       1 RES1   0.0000
    50 H50     -4.5039  -1.8233 -18.4966   H         1 RES1   0.0000
    51 C51     -4.7216  -0.5138 -16.8199   C.ar      1 RES1   0.0000
    52 C52     -6.5191  -1.9719 -17.7747   C.3       1 RES1   0.0000
    53 H53     -6.8960  -1.1456 -18.3738   H         1 RES1   0.0000
    54 H54     -6.7327  -2.8986 -18.3033   H         1 RES1   0.0000
    55 H55     -7.0658  -1.9849 -16.8341   H         1 RES1   0.0000
    56 C56     -4.1691   1.8816 -15.5095   C.ar      1 RES1   0.0000
    57 H57     -3.9532   2.8145 -14.9993   H         1 RES1   0.0000
    58 C58     -4.6919  -0.4529 -15.4341   C.ar      1 RES1   0.0000
    59 H59     -4.8866  -1.3489 -14.8541   H         1 RES1   0.0000
    60 C60     -4.4721   0.6472 -17.5387   C.ar      1 RES1   0.0000
    61 H61     -4.4917   0.6245 -18.6233   H         1 RES1   0.0000
    62 C62     -4.1973   1.8371 -16.8860   C.ar      1 RES1   0.0000
    63 H63     -4.0036   2.7365 -17.4609   H         1 RES1   0.0000
    64 C64     -4.4162   0.7376 -14.7832   C.ar      1 RES1   0.0000
    65 H65     -4.3947   0.7690 -13.6989   H         1 RES1   0.0000
@<TRIPOS>BOND
     1     1     5   ar
     2     1     6   ar
     3     1     2    1
     4     3     8   ar
     5     3     9   ar
     6     3     4    1
     7     5     9   ar
     8     5    11    1
     9     6     8   ar
    10     6     7    1
    11     8    12    1
    12     9    10    1
    13    11    20    2
    14    11    23    1
    15    13    14    1
    16    13    23   am
    17    13    24    1
    18    14    31    1
    19    14    34    1
    20    14    15    1
    21    16    24    1
    22    16    17    1
    23    16    18    1
    24    16    19    1
    25    20    21    1
    26    20    24    1
    27    21    40   ar
    28    21    45   ar
    29    22    23    2
    30    25    34    1
    31    25    37    1
    32    25    26    1
    33    25    27    1
    34    28    31    1
    35    28    37    1
    36    28    29    1
    37    28    30    1
    38    31    32    1
    39    31    33    1
    40    34    35    1
    41    34    36    1
    42    37    38    1
    43    37    39    1
    44    40    47   ar
    45    41    45   ar
    46    41    48   ar
    47    41    42    1
    48    43    47    1
    49    43    49    1
    50    43    44    1
    51    45    46    1
    52    47    48   ar
    53    49    51    1
    54    49    52    1
    55    49    50    1
    56    51    58   ar
    57    51    60   ar
    58    52    53    1
    59    52    54    1
    60    52    55    1
    61    56    62   ar
    62    56    64   ar
    63    56    57    1
    64    58    64   ar
    65    58    59    1
    66    60    62   ar
    67    60    61    1
    68    62    63    1
    69    64    65    1
@<TRIPOS>SUBSTRUCTURE
     1 RES1        1 GROUP             0 ****  ****    0  
@<TRIPOS>MOLECULE
LIGAND_00383
    65    69     1     0     0
SMALL
USER_CHARGES
****
Generated from the CSD

@<TRIPOS>ATOM
     1 C1      -0.7027  -3.3903 -14.9781   C.ar      1 RES1   0.0000
     2 H2      -1.7635  -3.4211 -14.7543   H         1 RES1   0.0000
     3 C3       2.0037  -3.2747 -15.5205   C.ar      1 RES1   0.0000
     4 H4       3.0672  -3.2194 -15.7282   H         1 RES1   0.0000
     5 C5       0.0599  -4.5461 -14.8386   C.ar      1 RES1   0.0000
     6 C6      -0.1343  -2.1985 -15.3916   C.ar      1 RES1   0.0000
     7 H7      -0.7388  -1.3050 -15.5067   H         1 RES1   0.0000
     8 C8       1.2073  -2.1727 -15.6497   C.ar      1 RES1   0.0000
     9 C9       1.4207  -4.4628 -15.1196   C.ar      1 RES1   0.0000
    10 H10      2.0424  -5.3462 -15.0278   H         1 RES1   0.0000
    11 C11     -0.5410  -5.8434 -14.3880   C.2       1 RES1   0.0000
    12 F12      1.7741  -1.0026 -16.0515   F         1 RES1   0.0000
    13 N13     -1.2406  -7.9410 -14.1570   N.am      1 RES1   0.0000
    14 C14     -1.5106  -9.4109 -14.3092   C.3       1 RES1   0.0000
    15 H15     -1.0787  -9.7377 -15.2540   H         1 RES1   0.0000
    16 C16     -2.0882  -7.8386 -11.7803   C.3       1 RES1   0.0000
    17 H17     -2.6360  -7.1177 -11.1770   H         1 RES1   0.0000
    18 H18     -2.7550  -8.6688 -12.0043   H         1 RES1   0.0000
    19 H19     -1.2602  -8.2193 -11.1861   H         1 RES1   0.0000
    20 C20     -1.1594  -5.9688 -13.1688   C.2       1 RES1   0.0000
    21 C21     -1.4160  -4.9157 -12.1531   C.ar      1 RES1   0.0000
    22 O22     -0.1808  -7.5094 -16.1020   O.2       1 RES1   0.0000
    23 C23     -0.6007  -7.1206 -15.0199   C.2       1 RES1   0.0000
    24 N24     -1.5984  -7.2184 -13.0119   N.pl3     1 RES1   0.0000
    25 C25     -1.0833 -11.6911 -13.3371   C.3       1 RES1   0.0000
    26 H26     -0.6333 -12.2196 -12.4980   H         1 RES1   0.0000
    27 H27     -0.6343 -12.0371 -14.2670   H         1 RES1   0.0000
    28 C28     -3.2435 -11.2227 -14.4624   C.3       1 RES1   0.0000
    29 H29     -2.8589 -11.5671 -15.4213   H         1 RES1   0.0000
    30 H30     -4.3132 -11.4194 -14.4085   H         1 RES1   0.0000
    31 C31     -3.0042  -9.7256 -14.3372   C.3       1 RES1   0.0000
    32 H32     -3.4588  -9.2199 -15.1877   H         1 RES1   0.0000
    33 H33     -3.4608  -9.3678 -13.4156   H         1 RES1   0.0000
    34 C34     -0.8407 -10.1997 -13.1834   C.3       1 RES1   0.0000
    35 H35     -1.2473  -9.8704 -12.2284   H         1 RES1   0.0000
    36 H36      0.2315 -10.0101 -13.2062   H         1 RES1   0.0000
    37 N37     -2.5536 -11.9613 -13.3642   N.4       1 RES1   1.0000
    38 H38     -2.9546 -11.6761 -12.4764   H         1 RES1   0.0000
    39 H39     -2.7005 -12.9568 -13.4974   H         1 RES1   0.0000
    40 N40     -2.6992  -4.6898 -11.8302   N.ar      1 RES1   0.0000
    41 C41     -0.7580  -3.2243 -10.6488   C.ar      1 RES1   0.0000
    42 H42      0.0265  -2.6440 -10.1743   H         1 RES1   0.0000
    43 N43     -4.2293  -3.4806 -10.6241   N.pl3     1 RES1   0.0000
    44 H44     -4.4449  -3.1822  -9.6728   H         1 RES1   0.0000
    45 C45     -0.3913  -4.1856 -11.5689   C.ar      1 RES1   0.0000
    46 H46      0.6486  -4.3597 -11.8246   H         1 RES1   0.0000
    47 C47     -2.9451  -3.7222 -10.9322   C.ar      1 RES1   0.0000
    48 N48     -2.0280  -2.9671 -10.3100   N.ar      1 RES1   0.0000
    49 C49     -5.3454  -3.6790 -11.5485   C.3       1 RES1   0.0000
    50 H50     -5.3996  -4.7468 -11.8116   H         1 RES1   0.0000
    51 C51     -5.1890  -2.8749 -12.8243   C.ar      1 RES1   0.0000
    52 C52     -6.6258  -3.2937 -10.8169   C.3       1 RES1   0.0000
    53 H53     -7.4957  -3.4533 -11.4506   H         1 RES1   0.0000
    54 H54     -6.7505  -3.8883  -9.9144   H         1 RES1   0.0000
    55 H55     -6.6037  -2.2442 -10.5306   H         1 RES1   0.0000
    56 C56     -4.8937  -1.3867 -15.1606   C.ar      1 RES1   0.0000
    57 H57     -4.7782  -0.8075 -16.0707   H         1 RES1   0.0000
    58 C58     -4.5088  -1.6657 -12.8147   C.ar      1 RES1   0.0000
    59 H59     -4.0874  -1.2952 -11.8861   H         1 RES1   0.0000
    60 C60     -5.7214  -3.3252 -14.0246   C.ar      1 RES1   0.0000
    61 H61     -6.2589  -4.2671 -14.0563   H         1 RES1   0.0000
    62 C62     -5.5735  -2.5846 -15.1851   C.ar      1 RES1   0.0000
    63 H63     -5.9944  -2.9493 -16.1162   H         1 RES1   0.0000
    64 C64     -4.3613  -0.9268 -13.9763   C.ar      1 RES1   0.0000
    65 H65     -3.8252   0.0161 -13.9533   H         1 RES1   0.0000
@<TRIPOS>BOND
     1     1     5   ar
     2     1     6   ar
     3     1     2    1
     4     3     8   ar
     5     3     9   ar
     6     3     4    1
     7     5     9   ar
     8     5    11    1
     9     6     8   ar
    10     6     7    1
    11     8    12    1
    12     9    10    1
    13    11    20    2
    14    11    23    1
    15    13    14    1
    16    13    23   am
    17    13    24    1
    18    14    31    1
    19    14    34    1
    20    14    15    1
    21    16    24    1
    22    16    17    1
    23    16    18    1
    24    16    19    1
    25    20    21    1
    26    20    24    1
    27    21    40   ar
    28    21    45   ar
    29    22    23    2
    30    25    34    1
    31    25    37    1
    32    25    26    1
    33    25    27    1
    34    28    31    1
    35    28    37    1
    36    28    29    1
    37    28    30    1
    38    31    32    1
    39    31    33    1
    40    34    35    1
    41    34    36    1
    42    37    38    1
    43    37    39    1
    44    40    47   ar
    45    41    45   ar
    46    41    48   ar
    47    41    42    1
    48    43    47    1
    49    43    49    1
    50    43    44    1
    51    45    46    1
    52    47    48   ar
    53    49    51    1
    54    49    52    1
    55    49    50    1
    56    51    58   ar
    57    51    60   ar
    58    52    53    1
    59    52    54    1
    60    52    55    1
    61    56    62   ar
    62    56    64   ar
    63    56    57    1
    64    58    64   ar
    65    58    59    1
    66    60    62   ar
    67    60    61    1
    68    62    63    1
    69    64    65    1
@<TRIPOS>SUBSTRUCTURE
     1 RES1        1 GROUP             0 ****  ****    0  
@<TRIPOS>MOLECULE
LIGAND_00384
    65    69     1     0     0
SMALL
USER_CHARGES
****
Generated from the CSD

@<TRIPOS>ATOM
     1 C1      -0.7027  -3.3903 -14.9781   C.ar      1 RES1   0.0000
     2 H2      -1.7635  -3.4211 -14.7543   H         1 RES1   0.0000
     3 C3       2.0037  -3.2747 -15.5205   C.ar      1 RES1   0.0000
     4 H4       3.0672  -3.2194 -15.7282   H         1 RES1   0.0000
     5 C5       0.0599  -4.5461 -14.8386   C.ar      1 RES1   0.0000
     6 C6      -0.1343  -2.1985 -15.3916   C.ar      1 RES1   0.0000
     7 H7      -0.7388  -1.3050 -15.5067   H         1 RES1   0.0000
     8 C8       1.2073  -2.1727 -15.6497   C.ar      1 RES1   0.0000
     9 C9       1.4207  -4.4628 -15.1196   C.ar      1 RES1   0.0000
    10 H10      2.0424  -5.3462 -15.0278   H         1 RES1   0.0000
    11 C11     -0.5410  -5.8434 -14.3880   C.2       1 RES1   0.0000
    12 F12      1.7741  -1.0026 -16.0515   F         1 RES1   0.0000
    13 N13     -1.2406  -7.9410 -14.1570   N.am      1 RES1   0.0000
    14 C14     -1.5106  -9.4109 -14.3092   C.3       1 RES1   0.0000
    15 H15     -1.0787  -9.7377 -15.2540   H         1 RES1   0.0000
    16 C16     -2.0882  -7.8386 -11.7803   C.3       1 RES1   0.0000
    17 H17     -2.6360  -7.1177 -11.1770   H         1 RES1   0.0000
    18 H18     -2.7550  -8.6688 -12.0043   H         1 RES1   0.0000
    19 H19     -1.2602  -8.2193 -11.1861   H         1 RES1   0.0000
    20 C20     -1.1594  -5.9688 -13.1688   C.2       1 RES1   0.0000
    21 C21     -1.4160  -4.9157 -12.1531   C.ar      1 RES1   0.0000
    22 O22     -0.1808  -7.5094 -16.1020   O.2       1 RES1   0.0000
    23 C23     -0.6007  -7.1206 -15.0199   C.2       1 RES1   0.0000
    24 N24     -1.5984  -7.2184 -13.0119   N.pl3     1 RES1   0.0000
    25 C25     -1.0833 -11.6911 -13.3371   C.3       1 RES1   0.0000
    26 H26     -0.6333 -12.2196 -12.4980   H         1 RES1   0.0000
    27 H27     -0.6343 -12.0371 -14.2670   H         1 RES1   0.0000
    28 C28     -3.2435 -11.2227 -14.4624   C.3       1 RES1   0.0000
    29 H29     -2.8589 -11.5671 -15.4213   H         1 RES1   0.0000
    30 H30     -4.3132 -11.4194 -14.4085   H         1 RES1   0.0000
    31 C31     -3.0042  -9.7256 -14.3372   C.3       1 RES1   0.0000
    32 H32     -3.4588  -9.2199 -15.1877   H         1 RES1   0.0000
    33 H33     -3.4608  -9.3678 -13.4156   H         1 RES1   0.0000
    34 C34     -0.8407 -10.1997 -13.1834   C.3       1 RES1   0.0000
    35 H35     -1.2473  -9.8704 -12.2284   H         1 RES1   0.0000
    36 H36      0.2315 -10.0101 -13.2062   H         1 RES1   0.0000
    37 N37     -2.5536 -11.9613 -13.3642   N.4       1 RES1   1.0000
    38 H38     -2.9546 -11.6761 -12.4764   H         1 RES1   0.0000
    39 H39     -2.7005 -12.9568 -13.4974   H         1 RES1   0.0000
    40 N40     -2.6992  -4.6898 -11.8302   N.ar      1 RES1   0.0000
    41 C41     -0.7580  -3.2243 -10.6488   C.ar      1 RES1   0.0000
    42 H42      0.0265  -2.6440 -10.1743   H         1 RES1   0.0000
    43 N43     -4.2293  -3.4806 -10.6241   N.pl3     1 RES1   0.0000
    44 H44     -4.9286  -3.6068 -11.3557   H         1 RES1   0.0000
    45 C45     -0.3913  -4.1856 -11.5689   C.ar      1 RES1   0.0000
    46 H46      0.6486  -4.3597 -11.8246   H         1 RES1   0.0000
    47 C47     -2.9451  -3.7222 -10.9322   C.ar      1 RES1   0.0000
    48 N48     -2.0280  -2.9671 -10.3100   N.ar      1 RES1   0.0000
    49 C49     -4.6813  -2.9872  -9.3233   C.3       1 RES1   0.0000
    50 H50     -4.2431  -1.9916  -9.1524   H         1 RES1   0.0000
    51 C51     -4.2682  -3.8984  -8.1842   C.ar      1 RES1   0.0000
    52 C52     -6.1977  -2.8462  -9.3838   C.3       1 RES1   0.0000
    53 H53     -6.5864  -2.4498  -8.4481   H         1 RES1   0.0000
    54 H54     -6.4927  -2.1726 -10.1856   H         1 RES1   0.0000
    55 H55     -6.6664  -3.8116  -9.5629   H         1 RES1   0.0000
    56 C56     -3.5097  -5.5849  -6.1008   C.ar      1 RES1   0.0000
    57 H57     -3.2136  -6.2415  -5.2894   H         1 RES1   0.0000
    58 C58     -4.1242  -5.2627  -8.3915   C.ar      1 RES1   0.0000
    59 H59     -4.3098  -5.6775  -9.3767   H         1 RES1   0.0000
    60 C60     -4.0279  -3.3931  -6.9139   C.ar      1 RES1   0.0000
    61 H61     -4.1357  -2.3298  -6.7273   H         1 RES1   0.0000
    62 C62     -3.6506  -4.2326  -5.8793   C.ar      1 RES1   0.0000
    63 H63     -3.4654  -3.8235  -4.8917   H         1 RES1   0.0000
    64 C64     -3.7462  -6.1004  -7.3561   C.ar      1 RES1   0.0000
    65 H65     -3.6361  -7.1650  -7.5341   H         1 RES1   0.0000
@<TRIPOS>BOND
     1     1     5   ar
     2     1     6   ar
     3     1     2    1
     4     3     8   ar
     5     3     9   ar
     6     3     4    1
     7     5     9   ar
     8     5    11    1
     9     6     8   ar
    10     6     7    1
    11     8    12    1
    12     9    10    1
    13    11    20    2
    14    11    23    1
    15    13    14    1
    16    13    23   am
    17    13    24    1
    18    14    31    1
    19    14    34    1
    20    14    15    1
    21    16    24    1
    22    16    17    1
    23    16    18    1
    24    16    19    1
    25    20    21    1
    26    20    24    1
    27    21    40   ar
    28    21    45   ar
    29    22    23    2
    30    25    34    1
    31    25    37    1
    32    25    26    1
    33    25    27    1
    34    28    31    1
    35    28    37    1
    36    28    29    1
    37    28    30    1
    38    31    32    1
    39    31    33    1
    40    34    35    1
    41    34    36    1
    42    37    38    1
    43    37    39    1
    44    40    47   ar
    45    41    45   ar
    46    41    48   ar
    47    41    42    1
    48    43    47    1
    49    43    49    1
    50    43    44    1
    51    45    46    1
    52    47    48   ar
    53    49    51    1
    54    49    52    1
    55    49    50    1
    56    51    58   ar
    57    51    60   ar
    58    52    53    1
    59    52    54    1
    60    52    55    1
    61    56    62   ar
    62    56    64   ar
    63    56    57    1
    64    58    64   ar
    65    58    59    1
    66    60    62   ar
    67    60    61    1
    68    62    63    1
    69    64    65    1
@<TRIPOS>SUBSTRUCTURE
     1 RES1        1 GROUP             0 ****  ****    0  
@<TRIPOS>MOLECULE
LIGAND_00385
    65    69     1     0     0
SMALL
USER_CHARGES
****
Generated from the CSD

@<TRIPOS>ATOM
     1 C1      -0.4278  -3.4234 -14.9911   C.ar      1 RES1   0.0000
     2 H2      -1.5097  -3.4068 -14.9158   H         1 RES1   0.0000
     3 C3       2.3298  -3.4280 -15.1557   C.ar      1 RES1   0.0000
     4 H4       3.4132  -3.4197 -15.2151   H         1 RES1   0.0000
     5 C5       0.2584  -4.6050 -14.7273   C.ar      1 RES1   0.0000
     6 C6       0.2422  -2.2650 -15.3426   C.ar      1 RES1   0.0000
     7 H7      -0.3021  -1.3511 -15.5558   H         1 RES1   0.0000
     8 C8       1.6064  -2.2985 -15.4130   C.ar      1 RES1   0.0000
     9 C9       1.6473  -4.5824 -14.8187   C.ar      1 RES1   0.0000
    10 H10      2.2123  -5.4874 -14.6264   H         1 RES1   0.0000
    11 C11     -0.4533  -5.8668 -14.3417   C.2       1 RES1   0.0000
    12 F12      2.2724  -1.1614 -15.7528   F         1 RES1   0.0000
    13 N13     -1.2999  -7.9174 -14.1965   N.am      1 RES1   0.0000
    14 C14     -1.6525  -9.3642 -14.3935   C.3       1 RES1   0.0000
    15 H15     -1.1797  -9.7050 -15.3134   H         1 RES1   0.0000
    16 C16     -2.2977  -7.7936 -11.8799   C.3       1 RES1   0.0000
    17 H17     -2.8377  -7.0472 -11.3011   H         1 RES1   0.0000
    18 H18     -2.9996  -8.5753 -12.1630   H         1 RES1   0.0000
    19 H19     -1.5377  -8.2357 -11.2391   H         1 RES1   0.0000
    20 C20     -1.1594  -5.9688 -13.1688   C.2       1 RES1   0.0000
    21 C21     -1.4160  -4.9157 -12.1531   C.ar      1 RES1   0.0000
    22 O22     -0.0857  -7.5282 -16.0585   O.2       1 RES1   0.0000
    23 C23     -0.5519  -7.1283 -14.9997   C.2       1 RES1   0.0000
    24 N24     -1.6872  -7.1893 -13.0645   N.pl3     1 RES1   0.0000
    25 C25     -1.4386 -11.6810 -13.4375   C.3       1 RES1   0.0000
    26 H26     -1.0810 -12.2495 -12.5803   H         1 RES1   0.0000
    27 H27     -0.9511 -12.0423 -14.3417   H         1 RES1   0.0000
    28 C28     -3.4836 -11.0569 -14.6948   C.3       1 RES1   0.0000
    29 H29     -3.0581 -11.4120 -15.6323   H         1 RES1   0.0000
    30 H30     -4.5649 -11.1843 -14.7157   H         1 RES1   0.0000
    31 C31     -3.1579  -9.5806 -14.5263   C.3       1 RES1   0.0000
    32 H32     -3.5208  -9.0343 -15.3957   H         1 RES1   0.0000
    33 H33     -3.6518  -9.2069 -13.6306   H         1 RES1   0.0000
    34 C34     -1.1120 -10.2109 -13.2405   C.3       1 RES1   0.0000
    35 H35     -1.5602  -9.8693 -12.3086   H         1 RES1   0.0000
    36 H36     -0.0308 -10.0912 -13.1885   H         1 RES1   0.0000
    37 N37     -2.9181 -11.8545 -13.5671   N.4       1 RES1   1.0000
    38 H38     -3.3589 -11.5563 -12.7028   H         1 RES1   0.0000
    39 H39     -3.1191 -12.8362 -13.7282   H         1 RES1   0.0000
    40 N40     -0.8662  -5.0993 -10.9425   N.ar      1 RES1   0.0000
    41 C41     -2.3708  -2.8985 -11.3940   C.ar      1 RES1   0.0000
    42 H42     -2.9709  -2.0147 -11.5841   H         1 RES1   0.0000
    43 N43     -0.5809  -4.3597  -8.7908   N.pl3     1 RES1   0.0000
    44 H44     -0.2988  -3.5380  -8.2564   H         1 RES1   0.0000
    45 C45     -2.1938  -3.7996 -12.4246   C.ar      1 RES1   0.0000
    46 H46     -2.6438  -3.6432 -13.3994   H         1 RES1   0.0000
    47 C47     -1.1127  -4.1667 -10.0084   C.ar      1 RES1   0.0000
    48 N48     -1.8442  -3.0549 -10.1726   N.ar      1 RES1   0.0000
    49 C49     -0.3227  -5.6764  -8.2084   C.3       1 RES1   0.0000
    50 H50      0.4155  -6.2004  -8.8352   H         1 RES1   0.0000
    51 C51     -1.5750  -6.5269  -8.1245   C.ar      1 RES1   0.0000
    52 C52      0.2809  -5.4601  -6.8256   C.3       1 RES1   0.0000
    53 H53      0.5239  -6.4116  -6.3572   H         1 RES1   0.0000
    54 H54      1.1932  -4.8708  -6.8889   H         1 RES1   0.0000
    55 H55     -0.4183  -4.9336  -6.1794   H         1 RES1   0.0000
    56 C56     -3.8846  -8.0766  -7.9687   C.ar      1 RES1   0.0000
    57 H57     -4.7841  -8.6803  -7.9087   H         1 RES1   0.0000
    58 C58     -2.8187  -5.9336  -7.9621   C.ar      1 RES1   0.0000
    59 H59     -2.8923  -4.8532  -7.8946   H         1 RES1   0.0000
    60 C60     -1.5076  -7.9110  -8.2050   C.ar      1 RES1   0.0000
    61 H61     -0.5460  -8.3976  -8.3302   H         1 RES1   0.0000
    62 C62     -2.6565  -8.6800  -8.1278   C.ar      1 RES1   0.0000
    63 H63     -2.5887  -9.7608  -8.1929   H         1 RES1   0.0000
    64 C64     -3.9664  -6.7041  -7.8859   C.ar      1 RES1   0.0000
    65 H65     -4.9320  -6.2255  -7.7607   H         1 RES1   0.0000
@<TRIPOS>BOND
     1     1     5   ar
     2     1     6   ar
     3     1     2    1
     4     3     8   ar
     5     3     9   ar
     6     3     4    1
     7     5     9   ar
     8     5    11    1
     9     6     8   ar
    10     6     7    1
    11     8    12    1
    12     9    10    1
    13    11    20    2
    14    11    23    1
    15    13    14    1
    16    13    23   am
    17    13    24    1
    18    14    31    1
    19    14    34    1
    20    14    15    1
    21    16    24    1
    22    16    17    1
    23    16    18    1
    24    16    19    1
    25    20    21    1
    26    20    24    1
    27    21    40   ar
    28    21    45   ar
    29    22    23    2
    30    25    34    1
    31    25    37    1
    32    25    26    1
    33    25    27    1
    34    28    31    1
    35    28    37    1
    36    28    29    1
    37    28    30    1
    38    31    32    1
    39    31    33    1
    40    34    35    1
    41    34    36    1
    42    37    38    1
    43    37    39    1
    44    40    47   ar
    45    41    45   ar
    46    41    48   ar
    47    41    42    1
    48    43    47    1
    49    43    49    1
    50    43    44    1
    51    45    46    1
    52    47    48   ar
    53    49    51    1
    54    49    52    1
    55    49    50    1
    56    51    58   ar
    57    51    60   ar
    58    52    53    1
    59    52    54    1
    60    52    55    1
    61    56    62   ar
    62    56    64   ar
    63    56    57    1
    64    58    64   ar
    65    58    59    1
    66    60    62   ar
    67    60    61    1
    68    62    63    1
    69    64    65    1
@<TRIPOS>SUBSTRUCTURE
     1 RES1        1 GROUP             0 ****  ****    0  
@<TRIPOS>MOLECULE
LIGAND_00386
    65    69     1     0     0
SMALL
USER_CHARGES
****
Generated from the CSD

@<TRIPOS>ATOM
     1 C1      -0.4278  -3.4234 -14.9911   C.ar      1 RES1   0.0000
     2 H2      -1.5097  -3.4068 -14.9158   H         1 RES1   0.0000
     3 C3       2.3298  -3.4280 -15.1557   C.ar      1 RES1   0.0000
     4 H4       3.4132  -3.4197 -15.2151   H         1 RES1   0.0000
     5 C5       0.2584  -4.6050 -14.7273   C.ar      1 RES1   0.0000
     6 C6       0.2422  -2.2650 -15.3426   C.ar      1 RES1   0.0000
     7 H7      -0.3021  -1.3511 -15.5558   H         1 RES1   0.0000
     8 C8       1.6064  -2.2985 -15.4130   C.ar      1 RES1   0.0000
     9 C9       1.6473  -4.5824 -14.8187   C.ar      1 RES1   0.0000
    10 H10      2.2123  -5.4874 -14.6264   H         1 RES1   0.0000
    11 C11     -0.4533  -5.8668 -14.3417   C.2       1 RES1   0.0000
    12 F12      2.2724  -1.1614 -15.7528   F         1 RES1   0.0000
    13 N13     -1.2999  -7.9174 -14.1965   N.am      1 RES1   0.0000
    14 C14     -1.6525  -9.3642 -14.3935   C.3       1 RES1   0.0000
    15 H15     -1.1797  -9.7050 -15.3134   H         1 RES1   0.0000
    16 C16     -2.2977  -7.7936 -11.8799   C.3       1 RES1   0.0000
    17 H17     -2.8377  -7.0472 -11.3011   H         1 RES1   0.0000
    18 H18     -2.9996  -8.5753 -12.1630   H         1 RES1   0.0000
    19 H19     -1.5377  -8.2357 -11.2391   H         1 RES1   0.0000
    20 C20     -1.1594  -5.9688 -13.1688   C.2       1 RES1   0.0000
    21 C21     -1.4160  -4.9157 -12.1531   C.ar      1 RES1   0.0000
    22 O22     -0.0857  -7.5282 -16.0585   O.2       1 RES1   0.0000
    23 C23     -0.5519  -7.1283 -14.9997   C.2       1 RES1   0.0000
    24 N24     -1.6872  -7.1893 -13.0645   N.pl3     1 RES1   0.0000
    25 C25     -1.4386 -11.6810 -13.4375   C.3       1 RES1   0.0000
    26 H26     -1.0810 -12.2495 -12.5803   H         1 RES1   0.0000
    27 H27     -0.9511 -12.0423 -14.3417   H         1 RES1   0.0000
    28 C28     -3.4836 -11.0569 -14.6948   C.3       1 RES1   0.0000
    29 H29     -3.0581 -11.4120 -15.6323   H         1 RES1   0.0000
    30 H30     -4.5649 -11.1843 -14.7157   H         1 RES1   0.0000
    31 C31     -3.1579  -9.5806 -14.5263   C.3       1 RES1   0.0000
    32 H32     -3.5208  -9.0343 -15.3957   H         1 RES1   0.0000
    33 H33     -3.6518  -9.2069 -13.6306   H         1 RES1   0.0000
    34 C34     -1.1120 -10.2109 -13.2405   C.3       1 RES1   0.0000
    35 H35     -1.5602  -9.8693 -12.3086   H         1 RES1   0.0000
    36 H36     -0.0308 -10.0912 -13.1885   H         1 RES1   0.0000
    37 N37     -2.9181 -11.8545 -13.5671   N.4       1 RES1   1.0000
    38 H38     -3.3589 -11.5563 -12.7028   H         1 RES1   0.0000
    39 H39     -3.1191 -12.8362 -13.7282   H         1 RES1   0.0000
    40 N40     -0.8662  -5.0993 -10.9425   N.ar      1 RES1   0.0000
    41 C41     -2.3708  -2.8985 -11.3940   C.ar      1 RES1   0.0000
    42 H42     -2.9709  -2.0147 -11.5841   H         1 RES1   0.0000
    43 N43     -0.5809  -4.3597  -8.7908   N.pl3     1 RES1   0.0000
    44 H44     -0.4842  -5.3189  -8.4577   H         1 RES1   0.0000
    45 C45     -2.1938  -3.7996 -12.4246   C.ar      1 RES1   0.0000
    46 H46     -2.6438  -3.6432 -13.3994   H         1 RES1   0.0000
    47 C47     -1.1127  -4.1667 -10.0084   C.ar      1 RES1   0.0000
    48 N48     -1.8442  -3.0549 -10.1726   N.ar      1 RES1   0.0000
    49 C49     -0.1899  -3.2786  -7.8864   C.3       1 RES1   0.0000
    50 H50     -1.0871  -2.6969  -7.6238   H         1 RES1   0.0000
    51 C51      0.8267  -2.3426  -8.5101   C.ar      1 RES1   0.0000
    52 C52      0.3646  -3.9152  -6.6173   C.3       1 RES1   0.0000
    53 H53      0.6426  -3.1529  -5.8926   H         1 RES1   0.0000
    54 H54     -0.3741  -4.5676  -6.1564   H         1 RES1   0.0000
    55 H55      1.2487  -4.5089  -6.8400   H         1 RES1   0.0000
    56 C56      2.7001  -0.6346  -9.6648   C.ar      1 RES1   0.0000
    57 H57      3.4292   0.0310 -10.1149   H         1 RES1   0.0000
    58 C58      1.7293  -2.8121  -9.4535   C.ar      1 RES1   0.0000
    59 H59      1.7053  -3.8571  -9.7445   H         1 RES1   0.0000
    60 C60      0.8802  -1.0023  -8.1528   C.ar      1 RES1   0.0000
    61 H61      0.1857  -0.6127  -7.4159   H         1 RES1   0.0000
    62 C62      1.8117  -0.1544  -8.7279   C.ar      1 RES1   0.0000
    63 H63      1.8414   0.8910  -8.4394   H         1 RES1   0.0000
    64 C64      2.6595  -1.9627 -10.0280   C.ar      1 RES1   0.0000
    65 H65      3.3576  -2.3442 -10.7656   H         1 RES1   0.0000
@<TRIPOS>BOND
     1     1     5   ar
     2     1     6   ar
     3     1     2    1
     4     3     8   ar
     5     3     9   ar
     6     3     4    1
     7     5     9   ar
     8     5    11    1
     9     6     8   ar
    10     6     7    1
    11     8    12    1
    12     9    10    1
    13    11    20    2
    14    11    23    1
    15    13    14    1
    16    13    23   am
    17    13    24    1
    18    14    31    1
    19    14    34    1
    20    14    15    1
    21    16    24    1
    22    16    17    1
    23    16    18    1
    24    16    19    1
    25    20    21    1
    26    20    24    1
    27    21    40   ar
    28    21    45   ar
    29    22    23    2
    30    25    34    1
    31    25    37    1
    32    25    26    1
    33    25    27    1
    34    28    31    1
    35    28    37    1
    36    28    29    1
    37    28    30    1
    38    31    32    1
    39    31    33    1
    40    34    35    1
    41    34    36    1
    42    37    38    1
    43    37    39    1
    44    40    47   ar
    45    41    45   ar
    46    41    48   ar
    47    41    42    1
    48    43    47    1
    49    43    49    1
    50    43    44    1
    51    45    46    1
    52    47    48   ar
    53    49    51    1
    54    49    52    1
    55    49    50    1
    56    51    58   ar
    57    51    60   ar
    58    52    53    1
    59    52    54    1
    60    52    55    1
    61    56    62   ar
    62    56    64   ar
    63    56    57    1
    64    58    64   ar
    65    58    59    1
    66    60    62   ar
    67    60    61    1
    68    62    63    1
    69    64    65    1
@<TRIPOS>SUBSTRUCTURE
     1 RES1        1 GROUP             0 ****  ****    0  
@<TRIPOS>MOLECULE
LIGAND_00387
    65    69     1     0     0
SMALL
USER_CHARGES
****
Generated from the CSD

@<TRIPOS>ATOM
     1 C1      -0.7666  -3.8368 -15.9793   C.ar      1 RES1   0.0000
     2 H2      -1.6387  -4.2806 -16.4472   H         1 RES1   0.0000
     3 C3       1.4310  -2.6666 -14.7824   C.ar      1 RES1   0.0000
     4 H4       2.2889  -2.1970 -14.3126   H         1 RES1   0.0000
     5 C5      -0.1379  -4.5040 -14.9322   C.ar      1 RES1   0.0000
     6 C6      -0.3056  -2.6139 -16.4337   C.ar      1 RES1   0.0000
     7 H7      -0.7967  -2.1060 -17.2570   H         1 RES1   0.0000
     8 C8       0.7819  -2.0597 -15.8195   C.ar      1 RES1   0.0000
     9 C9       0.9685  -3.8948 -14.3468   C.ar      1 RES1   0.0000
    10 H10      1.4859  -4.3907 -13.5334   H         1 RES1   0.0000
    11 C11     -0.6279  -5.8274 -14.4266   C.2       1 RES1   0.0000
    12 F12      1.2375  -0.8545 -16.2575   F         1 RES1   0.0000
    13 N13     -1.1809  -7.9592 -14.1231   N.am      1 RES1   0.0000
    14 C14     -1.3686  -9.4452 -14.2378   C.3       1 RES1   0.0000
    15 H15     -0.9778  -9.7616 -15.2037   H         1 RES1   0.0000
    16 C16     -1.8817  -7.8671 -11.6986   C.3       1 RES1   0.0000
    17 H17     -2.4340  -7.1704 -11.0713   H         1 RES1   0.0000
    18 H18     -2.5087  -8.7400 -11.8682   H         1 RES1   0.0000
    19 H19     -0.9960  -8.1863 -11.1534   H         1 RES1   0.0000
    20 C20     -1.1594  -5.9688 -13.1688   C.2       1 RES1   0.0000
    21 C21     -1.4160  -4.9157 -12.1531   C.ar      1 RES1   0.0000
    22 O22     -0.2744  -7.4979 -16.1375   O.2       1 RES1   0.0000
    23 C23     -0.6484  -7.1166 -15.0361   C.2       1 RES1   0.0000
    24 N24     -1.5097  -7.2399 -12.9673   N.pl3     1 RES1   0.0000
    25 C25     -0.7410 -11.6780 -13.2642   C.3       1 RES1   0.0000
    26 H26     -0.2073 -12.1635 -12.4486   H         1 RES1   0.0000
    27 H27     -0.3310 -12.0123 -14.2161   H         1 RES1   0.0000
    28 C28     -2.9926 -11.3613 -14.2553   C.3       1 RES1   0.0000
    29 H29     -2.6487 -11.6984 -15.2321   H         1 RES1   0.0000
    30 H30     -4.0426 -11.6216 -14.1305   H         1 RES1   0.0000
    31 C31     -2.8387  -9.8505 -14.1659   C.3       1 RES1   0.0000
    32 H32     -3.3764  -9.3882 -14.9924   H         1 RES1   0.0000
    33 H33     -3.2576  -9.5051 -13.2219   H         1 RES1   0.0000
    34 C34     -0.5818 -10.1722 -13.1465   C.3       1 RES1   0.0000
    35 H35     -0.9470  -9.8515 -12.1720   H         1 RES1   0.0000
    36 H36      0.4731  -9.9182 -13.2404   H         1 RES1   0.0000
    37 N37     -2.1907 -12.0374 -13.1936   N.4       1 RES1   1.0000
    38 H38     -2.5518 -11.7616 -12.2859   H         1 RES1   0.0000
    39 H39     -2.2839 -13.0421 -13.3037   H         1 RES1   0.0000
    40 N40     -2.6992  -4.6898 -11.8302   N.ar      1 RES1   0.0000
    41 C41     -0.7580  -3.2243 -10.6488   C.ar      1 RES1   0.0000
    42 H42      0.0265  -2.6440 -10.1743   H         1 RES1   0.0000
    43 N43     -4.2293  -3.4806 -10.6241   N.pl3     1 RES1   0.0000
    44 H44     -4.9286  -3.6068 -11.3557   H         1 RES1   0.0000
    45 C45     -0.3913  -4.1856 -11.5689   C.ar      1 RES1   0.0000
    46 H46      0.6486  -4.3597 -11.8246   H         1 RES1   0.0000
    47 C47     -2.9451  -3.7222 -10.9322   C.ar      1 RES1   0.0000
    48 N48     -2.0280  -2.9671 -10.3100   N.ar      1 RES1   0.0000
    49 C49     -4.6813  -2.9872  -9.3233   C.3       1 RES1   0.0000
    50 H50     -4.2431  -1.9916  -9.1524   H         1 RES1   0.0000
    51 C51     -4.2682  -3.8984  -8.1842   C.ar      1 RES1   0.0000
    52 C52     -6.1977  -2.8463  -9.3838   C.3       1 RES1   0.0000
    53 H53     -6.5864  -2.4498  -8.4481   H         1 RES1   0.0000
    54 H54     -6.4927  -2.1726 -10.1856   H         1 RES1   0.0000
    55 H55     -6.6664  -3.8117  -9.5629   H         1 RES1   0.0000
    56 C56     -3.5096  -5.5849  -6.1008   C.ar      1 RES1   0.0000
    57 H57     -3.2135  -6.2415  -5.2894   H         1 RES1   0.0000
    58 C58     -4.1242  -5.2627  -8.3915   C.ar      1 RES1   0.0000
    59 H59     -4.3098  -5.6775  -9.3767   H         1 RES1   0.0000
    60 C60     -4.0279  -3.3931  -6.9139   C.ar      1 RES1   0.0000
    61 H61     -4.1358  -2.3298  -6.7273   H         1 RES1   0.0000
    62 C62     -3.6505  -4.2326  -5.8793   C.ar      1 RES1   0.0000
    63 H63     -3.4654  -3.8235  -4.8917   H         1 RES1   0.0000
    64 C64     -3.7461  -6.1004  -7.3561   C.ar      1 RES1   0.0000
    65 H65     -3.6359  -7.1649  -7.5341   H         1 RES1   0.0000
@<TRIPOS>BOND
     1     1     5   ar
     2     1     6   ar
     3     1     2    1
     4     3     8   ar
     5     3     9   ar
     6     3     4    1
     7     5     9   ar
     8     5    11    1
     9     6     8   ar
    10     6     7    1
    11     8    12    1
    12     9    10    1
    13    11    20    2
    14    11    23    1
    15    13    14    1
    16    13    23   am
    17    13    24    1
    18    14    31    1
    19    14    34    1
    20    14    15    1
    21    16    24    1
    22    16    17    1
    23    16    18    1
    24    16    19    1
    25    20    21    1
    26    20    24    1
    27    21    40   ar
    28    21    45   ar
    29    22    23    2
    30    25    34    1
    31    25    37    1
    32    25    26    1
    33    25    27    1
    34    28    31    1
    35    28    37    1
    36    28    29    1
    37    28    30    1
    38    31    32    1
    39    31    33    1
    40    34    35    1
    41    34    36    1
    42    37    38    1
    43    37    39    1
    44    40    47   ar
    45    41    45   ar
    46    41    48   ar
    47    41    42    1
    48    43    47    1
    49    43    49    1
    50    43    44    1
    51    45    46    1
    52    47    48   ar
    53    49    51    1
    54    49    52    1
    55    49    50    1
    56    51    58   ar
    57    51    60   ar
    58    52    53    1
    59    52    54    1
    60    52    55    1
    61    56    62   ar
    62    56    64   ar
    63    56    57    1
    64    58    64   ar
    65    58    59    1
    66    60    62   ar
    67    60    61    1
    68    62    63    1
    69    64    65    1
@<TRIPOS>SUBSTRUCTURE
     1 RES1        1 GROUP             0 ****  ****    0  
@<TRIPOS>MOLECULE
LIGAND_00388
    65    69     1     0     0
SMALL
USER_CHARGES
****
Generated from the CSD

@<TRIPOS>ATOM
     1 C1      -0.7027  -3.3903 -14.9781   C.ar      1 RES1   0.0000
     2 H2      -1.7635  -3.4211 -14.7543   H         1 RES1   0.0000
     3 C3       2.0037  -3.2747 -15.5205   C.ar      1 RES1   0.0000
     4 H4       3.0672  -3.2194 -15.7282   H         1 RES1   0.0000
     5 C5       0.0599  -4.5461 -14.8386   C.ar      1 RES1   0.0000
     6 C6      -0.1343  -2.1985 -15.3916   C.ar      1 RES1   0.0000
     7 H7      -0.7388  -1.3050 -15.5067   H         1 RES1   0.0000
     8 C8       1.2073  -2.1727 -15.6497   C.ar      1 RES1   0.0000
     9 C9       1.4207  -4.4628 -15.1196   C.ar      1 RES1   0.0000
    10 H10      2.0424  -5.3462 -15.0278   H         1 RES1   0.0000
    11 C11     -0.5410  -5.8434 -14.3880   C.2       1 RES1   0.0000
    12 F12      1.7741  -1.0026 -16.0515   F         1 RES1   0.0000
    13 N13     -1.2406  -7.9410 -14.1570   N.am      1 RES1   0.0000
    14 C14     -1.5106  -9.4109 -14.3092   C.3       1 RES1   0.0000
    15 H15     -1.0788  -9.7377 -15.2540   H         1 RES1   0.0000
    16 C16     -2.0882  -7.8386 -11.7803   C.3       1 RES1   0.0000
    17 H17     -2.6361  -7.1177 -11.1770   H         1 RES1   0.0000
    18 H18     -2.7550  -8.6688 -12.0043   H         1 RES1   0.0000
    19 H19     -1.2602  -8.2192 -11.1860   H         1 RES1   0.0000
    20 C20     -1.1594  -5.9688 -13.1688   C.2       1 RES1   0.0000
    21 C21     -1.4160  -4.9157 -12.1531   C.ar      1 RES1   0.0000
    22 O22     -0.1808  -7.5094 -16.1020   O.2       1 RES1   0.0000
    23 C23     -0.6007  -7.1206 -15.0199   C.2       1 RES1   0.0000
    24 N24     -1.5984  -7.2184 -13.0119   N.pl3     1 RES1   0.0000
    25 C25     -1.0832 -11.6911 -13.3372   C.3       1 RES1   0.0000
    26 H26     -0.6331 -12.2196 -12.4981   H         1 RES1   0.0000
    27 H27     -0.6343 -12.0371 -14.2671   H         1 RES1   0.0000
    28 C28     -3.2435 -11.2227 -14.4623   C.3       1 RES1   0.0000
    29 H29     -2.8590 -11.5671 -15.4212   H         1 RES1   0.0000
    30 H30     -4.3132 -11.4194 -14.4083   H         1 RES1   0.0000
    31 C31     -3.0042  -9.7256 -14.3370   C.3       1 RES1   0.0000
    32 H32     -3.4589  -9.2199 -15.1876   H         1 RES1   0.0000
    33 H33     -3.4607  -9.3678 -13.4154   H         1 RES1   0.0000
    34 C34     -0.8406 -10.1997 -13.1835   C.3       1 RES1   0.0000
    35 H35     -1.2472  -9.8704 -12.2284   H         1 RES1   0.0000
    36 H36      0.2315 -10.0101 -13.2063   H         1 RES1   0.0000
    37 N37     -2.5535 -11.9614 -13.3641   N.4       1 RES1   1.0000
    38 H38     -2.9544 -11.6761 -12.4763   H         1 RES1   0.0000
    39 H39     -2.7004 -12.9568 -13.4974   H         1 RES1   0.0000
    40 N40     -2.6992  -4.6898 -11.8302   N.ar      1 RES1   0.0000
    41 C41     -0.7580  -3.2243 -10.6488   C.ar      1 RES1   0.0000
    42 H42      0.0265  -2.6440 -10.1743   H         1 RES1   0.0000
    43 N43     -4.2293  -3.4806 -10.6241   N.pl3     1 RES1   0.0000
    44 H44     -4.8994  -4.2413 -10.7366   H         1 RES1   0.0000
    45 C45     -0.3913  -4.1856 -11.5689   C.ar      1 RES1   0.0000
    46 H46      0.6486  -4.3597 -11.8246   H         1 RES1   0.0000
    47 C47     -2.9451  -3.7222 -10.9322   C.ar      1 RES1   0.0000
    48 N48     -2.0280  -2.9671 -10.3100   N.ar      1 RES1   0.0000
    49 C49     -4.7386  -2.1775 -10.1973   C.3       1 RES1   0.0000
    50 H50     -4.5025  -1.4348 -10.9751   H         1 RES1   0.0000
    51 C51     -4.1258  -1.7177  -8.8891   C.ar      1 RES1   0.0000
    52 C52     -6.2539  -2.2900 -10.0775   C.3       1 RES1   0.0000
    53 H53     -6.6908  -1.3352  -9.7926   H         1 RES1   0.0000
    54 H54     -6.6958  -2.5959 -11.0235   H         1 RES1   0.0000
    55 H55     -6.5262  -3.0252  -9.3232   H         1 RES1   0.0000
    56 C56     -2.9984  -0.8877  -6.4806   C.ar      1 RES1   0.0000
    57 H57     -2.5587  -0.5643  -5.5430   H         1 RES1   0.0000
    58 C58     -3.7477  -2.6422  -7.9260   C.ar      1 RES1   0.0000
    59 H59     -3.8934  -3.7009  -8.1132   H         1 RES1   0.0000
    60 C60     -3.9316  -0.3691  -8.6239   C.ar      1 RES1   0.0000
    61 H61     -4.2211   0.3724  -9.3611   H         1 RES1   0.0000
    62 C62     -3.3708   0.0420  -7.4265   C.ar      1 RES1   0.0000
    63 H63     -3.2244   1.0995  -7.2332   H         1 RES1   0.0000
    64 C64     -3.1864  -2.2294  -6.7296   C.ar      1 RES1   0.0000
    65 H65     -2.8941  -2.9643  -5.9870   H         1 RES1   0.0000
@<TRIPOS>BOND
     1     1     5   ar
     2     1     6   ar
     3     1     2    1
     4     3     8   ar
     5     3     9   ar
     6     3     4    1
     7     5     9   ar
     8     5    11    1
     9     6     8   ar
    10     6     7    1
    11     8    12    1
    12     9    10    1
    13    11    20    2
    14    11    23    1
    15    13    14    1
    16    13    23   am
    17    13    24    1
    18    14    31    1
    19    14    34    1
    20    14    15    1
    21    16    24    1
    22    16    17    1
    23    16    18    1
    24    16    19    1
    25    20    21    1
    26    20    24    1
    27    21    40   ar
    28    21    45   ar
    29    22    23    2
    30    25    34    1
    31    25    37    1
    32    25    26    1
    33    25    27    1
    34    28    31    1
    35    28    37    1
    36    28    29    1
    37    28    30    1
    38    31    32    1
    39    31    33    1
    40    34    35    1
    41    34    36    1
    42    37    38    1
    43    37    39    1
    44    40    47   ar
    45    41    45   ar
    46    41    48   ar
    47    41    42    1
    48    43    47    1
    49    43    49    1
    50    43    44    1
    51    45    46    1
    52    47    48   ar
    53    49    51    1
    54    49    52    1
    55    49    50    1
    56    51    58   ar
    57    51    60   ar
    58    52    53    1
    59    52    54    1
    60    52    55    1
    61    56    62   ar
    62    56    64   ar
    63    56    57    1
    64    58    64   ar
    65    58    59    1
    66    60    62   ar
    67    60    61    1
    68    62    63    1
    69    64    65    1
@<TRIPOS>SUBSTRUCTURE
     1 RES1        1 GROUP             0 ****  ****    0  
@<TRIPOS>MOLECULE
LIGAND_00389
    65    69     1     0     0
SMALL
USER_CHARGES
****
Generated from the CSD

@<TRIPOS>ATOM
     1 C1      -0.3701  -3.8964 -15.9918   C.ar      1 RES1   0.0000
     2 H2      -1.1642  -4.3349 -16.5863   H         1 RES1   0.0000
     3 C3       1.6297  -2.7392 -14.4773   C.ar      1 RES1   0.0000
     4 H4       2.4102  -2.2746 -13.8839   H         1 RES1   0.0000
     5 C5       0.0599  -4.5461 -14.8386   C.ar      1 RES1   0.0000
     6 C6       0.1911  -2.6974 -16.3942   C.ar      1 RES1   0.0000
     7 H7      -0.1441  -2.2032 -17.2999   H         1 RES1   0.0000
     8 C8       1.1764  -2.1489 -15.6225   C.ar      1 RES1   0.0000
     9 C9       1.0700  -3.9440 -14.0935   C.ar      1 RES1   0.0000
    10 H10      1.4331  -4.4269 -13.1935   H         1 RES1   0.0000
    11 C11     -0.5410  -5.8434 -14.3880   C.2       1 RES1   0.0000
    12 F12      1.7291  -0.9670 -16.0092   F         1 RES1   0.0000
    13 N13     -1.2406  -7.9410 -14.1570   N.am      1 RES1   0.0000
    14 C14     -1.5106  -9.4109 -14.3092   C.3       1 RES1   0.0000
    15 H15     -1.0788  -9.7377 -15.2540   H         1 RES1   0.0000
    16 C16     -2.0882  -7.8386 -11.7803   C.3       1 RES1   0.0000
    17 H17     -2.6361  -7.1177 -11.1770   H         1 RES1   0.0000
    18 H18     -2.7550  -8.6688 -12.0043   H         1 RES1   0.0000
    19 H19     -1.2602  -8.2192 -11.1860   H         1 RES1   0.0000
    20 C20     -1.1594  -5.9688 -13.1688   C.2       1 RES1   0.0000
    21 C21     -1.4160  -4.9157 -12.1531   C.ar      1 RES1   0.0000
    22 O22     -0.1808  -7.5094 -16.1020   O.2       1 RES1   0.0000
    23 C23     -0.6007  -7.1206 -15.0199   C.2       1 RES1   0.0000
    24 N24     -1.5984  -7.2184 -13.0119   N.pl3     1 RES1   0.0000
    25 C25     -1.0832 -11.6911 -13.3372   C.3       1 RES1   0.0000
    26 H26     -0.6331 -12.2196 -12.4981   H         1 RES1   0.0000
    27 H27     -0.6343 -12.0371 -14.2671   H         1 RES1   0.0000
    28 C28     -3.2435 -11.2227 -14.4623   C.3       1 RES1   0.0000
    29 H29     -2.8590 -11.5671 -15.4212   H         1 RES1   0.0000
    30 H30     -4.3132 -11.4194 -14.4083   H         1 RES1   0.0000
    31 C31     -3.0042  -9.7256 -14.3370   C.3       1 RES1   0.0000
    32 H32     -3.4589  -9.2199 -15.1876   H         1 RES1   0.0000
    33 H33     -3.4607  -9.3678 -13.4154   H         1 RES1   0.0000
    34 C34     -0.8406 -10.1997 -13.1835   C.3       1 RES1   0.0000
    35 H35     -1.2472  -9.8704 -12.2284   H         1 RES1   0.0000
    36 H36      0.2315 -10.0101 -13.2063   H         1 RES1   0.0000
    37 N37     -2.5535 -11.9614 -13.3641   N.4       1 RES1   1.0000
    38 H38     -2.9544 -11.6761 -12.4763   H         1 RES1   0.0000
    39 H39     -2.7004 -12.9568 -13.4974   H         1 RES1   0.0000
    40 N40     -0.8662  -5.0993 -10.9425   N.ar      1 RES1   0.0000
    41 C41     -2.3708  -2.8985 -11.3940   C.ar      1 RES1   0.0000
    42 H42     -2.9709  -2.0147 -11.5841   H         1 RES1   0.0000
    43 N43     -0.5809  -4.3597  -8.7908   N.pl3     1 RES1   0.0000
    44 H44      0.2651  -4.9252  -8.7226   H         1 RES1   0.0000
    45 C45     -2.1938  -3.7996 -12.4246   C.ar      1 RES1   0.0000
    46 H46     -2.6438  -3.6432 -13.3994   H         1 RES1   0.0000
    47 C47     -1.1127  -4.1667 -10.0084   C.ar      1 RES1   0.0000
    48 N48     -1.8442  -3.0549 -10.1726   N.ar      1 RES1   0.0000
    49 C49     -1.1737  -3.8626  -7.5493   C.3       1 RES1   0.0000
    50 H50     -2.1971  -4.2596  -7.4638   H         1 RES1   0.0000
    51 C51     -1.2380  -2.3486  -7.5053   C.ar      1 RES1   0.0000
    52 C52     -0.3443  -4.4051  -6.3913   C.3       1 RES1   0.0000
    53 H53     -0.7618  -4.0913  -5.4369   H         1 RES1   0.0000
    54 H54     -0.3190  -5.4927  -6.4088   H         1 RES1   0.0000
    55 H55      0.6796  -4.0416  -6.4487   H         1 RES1   0.0000
    56 C56     -1.3433   0.4342  -7.4331   C.ar      1 RES1   0.0000
    57 H57     -1.3848   1.5181  -7.4055   H         1 RES1   0.0000
    58 C58     -0.2722  -1.5846  -8.1445   C.ar      1 RES1   0.0000
    59 H59      0.5338  -2.0770  -8.6784   H         1 RES1   0.0000
    60 C60     -2.2569  -1.6943  -6.8266   C.ar      1 RES1   0.0000
    61 H61     -3.0225  -2.2706  -6.3178   H         1 RES1   0.0000
    62 C62     -2.3082  -0.3110  -6.7919   C.ar      1 RES1   0.0000
    63 H63     -3.1109   0.1867  -6.2581   H         1 RES1   0.0000
    64 C64     -0.3255  -0.2015  -8.1093   C.ar      1 RES1   0.0000
    65 H65      0.4361   0.3823  -8.6155   H         1 RES1   0.0000
@<TRIPOS>BOND
     1     1     5   ar
     2     1     6   ar
     3     1     2    1
     4     3     8   ar
     5     3     9   ar
     6     3     4    1
     7     5     9   ar
     8     5    11    1
     9     6     8   ar
    10     6     7    1
    11     8    12    1
    12     9    10    1
    13    11    20    2
    14    11    23    1
    15    13    14    1
    16    13    23   am
    17    13    24    1
    18    14    31    1
    19    14    34    1
    20    14    15    1
    21    16    24    1
    22    16    17    1
    23    16    18    1
    24    16    19    1
    25    20    21    1
    26    20    24    1
    27    21    40   ar
    28    21    45   ar
    29    22    23    2
    30    25    34    1
    31    25    37    1
    32    25    26    1
    33    25    27    1
    34    28    31    1
    35    28    37    1
    36    28    29    1
    37    28    30    1
    38    31    32    1
    39    31    33    1
    40    34    35    1
    41    34    36    1
    42    37    38    1
    43    37    39    1
    44    40    47   ar
    45    41    45   ar
    46    41    48   ar
    47    41    42    1
    48    43    47    1
    49    43    49    1
    50    43    44    1
    51    45    46    1
    52    47    48   ar
    53    49    51    1
    54    49    52    1
    55    49    50    1
    56    51    58   ar
    57    51    60   ar
    58    52    53    1
    59    52    54    1
    60    52    55    1
    61    56    62   ar
    62    56    64   ar
    63    56    57    1
    64    58    64   ar
    65    58    59    1
    66    60    62   ar
    67    60    61    1
    68    62    63    1
    69    64    65    1
@<TRIPOS>SUBSTRUCTURE
     1 RES1        1 GROUP             0 ****  ****    0  
@<TRIPOS>MOLECULE
LIGAND_00390
    65    69     1     0     0
SMALL
USER_CHARGES
****
Generated from the CSD

@<TRIPOS>ATOM
     1 C1      -0.4279  -3.4234 -14.9910   C.ar      1 RES1   0.0000
     2 H2      -1.5098  -3.4068 -14.9157   H         1 RES1   0.0000
     3 C3       2.3298  -3.4279 -15.1558   C.ar      1 RES1   0.0000
     4 H4       3.4131  -3.4197 -15.2153   H         1 RES1   0.0000
     5 C5       0.2584  -4.6050 -14.7273   C.ar      1 RES1   0.0000
     6 C6       0.2421  -2.2649 -15.3426   C.ar      1 RES1   0.0000
     7 H7      -0.3022  -1.3511 -15.5557   H         1 RES1   0.0000
     8 C8       1.6064  -2.2984 -15.4130   C.ar      1 RES1   0.0000
     9 C9       1.6473  -4.5824 -14.8188   C.ar      1 RES1   0.0000
    10 H10      2.2122  -5.4874 -14.6265   H         1 RES1   0.0000
    11 C11     -0.4533  -5.8668 -14.3417   C.2       1 RES1   0.0000
    12 F12      2.2723  -1.1614 -15.7528   F         1 RES1   0.0000
    13 N13     -1.2999  -7.9174 -14.1965   N.am      1 RES1   0.0000
    14 C14     -1.6525  -9.3643 -14.3934   C.3       1 RES1   0.0000
    15 H15     -1.1798  -9.7050 -15.3134   H         1 RES1   0.0000
    16 C16     -2.2976  -7.7936 -11.8799   C.3       1 RES1   0.0000
    17 H17     -2.8377  -7.0472 -11.3011   H         1 RES1   0.0000
    18 H18     -2.9995  -8.5753 -12.1630   H         1 RES1   0.0000
    19 H19     -1.5377  -8.2357 -11.2391   H         1 RES1   0.0000
    20 C20     -1.1594  -5.9688 -13.1688   C.2       1 RES1   0.0000
    21 C21     -1.4160  -4.9157 -12.1531   C.ar      1 RES1   0.0000
    22 O22     -0.0857  -7.5282 -16.0585   O.2       1 RES1   0.0000
    23 C23     -0.5520  -7.1283 -14.9997   C.2       1 RES1   0.0000
    24 N24     -1.6871  -7.1893 -13.0645   N.pl3     1 RES1   0.0000
    25 C25     -1.4385 -11.6810 -13.4375   C.3       1 RES1   0.0000
    26 H26     -1.0808 -12.2495 -12.5804   H         1 RES1   0.0000
    27 H27     -0.9510 -12.0423 -14.3418   H         1 RES1   0.0000
    28 C28     -3.4835 -11.0570 -14.6947   C.3       1 RES1   0.0000
    29 H29     -3.0581 -11.4121 -15.6322   H         1 RES1   0.0000
    30 H30     -4.5649 -11.1843 -14.7155   H         1 RES1   0.0000
    31 C31     -3.1579  -9.5806 -14.5262   C.3       1 RES1   0.0000
    32 H32     -3.5209  -9.0343 -15.3955   H         1 RES1   0.0000
    33 H33     -3.6518  -9.2069 -13.6305   H         1 RES1   0.0000
    34 C34     -1.1119 -10.2109 -13.2405   C.3       1 RES1   0.0000
    35 H35     -1.5600  -9.8693 -12.3086   H         1 RES1   0.0000
    36 H36     -0.0307 -10.0912 -13.1886   H         1 RES1   0.0000
    37 N37     -2.9180 -11.8545 -13.5670   N.4       1 RES1   1.0000
    38 H38     -3.3588 -11.5563 -12.7027   H         1 RES1   0.0000
    39 H39     -3.1189 -12.8363 -13.7281   H         1 RES1   0.0000
    40 N40     -0.8662  -5.0993 -10.9425   N.ar      1 RES1   0.0000
    41 C41     -2.3708  -2.8985 -11.3940   C.ar      1 RES1   0.0000
    42 H42     -2.9709  -2.0147 -11.5841   H         1 RES1   0.0000
    43 N43     -0.5809  -4.3597  -8.7908   N.pl3     1 RES1   0.0000
    44 H44      0.2651  -4.9253  -8.7226   H         1 RES1   0.0000
    45 C45     -2.1938  -3.7996 -12.4246   C.ar      1 RES1   0.0000
    46 H46     -2.6438  -3.6432 -13.3994   H         1 RES1   0.0000
    47 C47     -1.1127  -4.1667 -10.0084   C.ar      1 RES1   0.0000
    48 N48     -1.8442  -3.0549 -10.1726   N.ar      1 RES1   0.0000
    49 C49     -1.1737  -3.8626  -7.5493   C.3       1 RES1   0.0000
    50 H50     -2.1971  -4.2596  -7.4637   H         1 RES1   0.0000
    51 C51     -1.2381  -2.3486  -7.5054   C.ar      1 RES1   0.0000
    52 C52     -0.3442  -4.4050  -6.3913   C.3       1 RES1   0.0000
    53 H53     -0.7617  -4.0911  -5.4369   H         1 RES1   0.0000
    54 H54     -0.3188  -5.4926  -6.4088   H         1 RES1   0.0000
    55 H55      0.6797  -4.0414  -6.4488   H         1 RES1   0.0000
    56 C56     -1.3435   0.4343  -7.4333   C.ar      1 RES1   0.0000
    57 H57     -1.3851   1.5181  -7.4057   H         1 RES1   0.0000
    58 C58     -0.2723  -1.5845  -8.1445   C.ar      1 RES1   0.0000
    59 H59      0.5339  -2.0769  -8.6782   H         1 RES1   0.0000
    60 C60     -2.2572  -1.6943  -6.8269   C.ar      1 RES1   0.0000
    61 H61     -3.0227  -2.2707  -6.3181   H         1 RES1   0.0000
    62 C62     -2.3085  -0.3110  -6.7922   C.ar      1 RES1   0.0000
    63 H63     -3.1113   0.1867  -6.2585   H         1 RES1   0.0000
    64 C64     -0.3256  -0.2015  -8.1093   C.ar      1 RES1   0.0000
    65 H65      0.4360   0.3824  -8.6155   H         1 RES1   0.0000
@<TRIPOS>BOND
     1     1     5   ar
     2     1     6   ar
     3     1     2    1
     4     3     8   ar
     5     3     9   ar
     6     3     4    1
     7     5     9   ar
     8     5    11    1
     9     6     8   ar
    10     6     7    1
    11     8    12    1
    12     9    10    1
    13    11    20    2
    14    11    23    1
    15    13    14    1
    16    13    23   am
    17    13    24    1
    18    14    31    1
    19    14    34    1
    20    14    15    1
    21    16    24    1
    22    16    17    1
    23    16    18    1
    24    16    19    1
    25    20    21    1
    26    20    24    1
    27    21    40   ar
    28    21    45   ar
    29    22    23    2
    30    25    34    1
    31    25    37    1
    32    25    26    1
    33    25    27    1
    34    28    31    1
    35    28    37    1
    36    28    29    1
    37    28    30    1
    38    31    32    1
    39    31    33    1
    40    34    35    1
    41    34    36    1
    42    37    38    1
    43    37    39    1
    44    40    47   ar
    45    41    45   ar
    46    41    48   ar
    47    41    42    1
    48    43    47    1
    49    43    49    1
    50    43    44    1
    51    45    46    1
    52    47    48   ar
    53    49    51    1
    54    49    52    1
    55    49    50    1
    56    51    58   ar
    57    51    60   ar
    58    52    53    1
    59    52    54    1
    60    52    55    1
    61    56    62   ar
    62    56    64   ar
    63    56    57    1
    64    58    64   ar
    65    58    59    1
    66    60    62   ar
    67    60    61    1
    68    62    63    1
    69    64    65    1
@<TRIPOS>SUBSTRUCTURE
     1 RES1        1 GROUP             0 ****  ****    0  
@<TRIPOS>MOLECULE
LIGAND_00391
    65    69     1     0     0
SMALL
USER_CHARGES
****
Generated from the CSD

@<TRIPOS>ATOM
     1 C1      -0.2451  -3.9000 -15.9565   C.ar      1 RES1   0.0000
     2 H2      -1.0342  -4.3148 -16.5743   H         1 RES1   0.0000
     3 C3       1.7427  -2.8026 -14.3830   C.ar      1 RES1   0.0000
     4 H4       2.5189  -2.3614 -13.7664   H         1 RES1   0.0000
     5 C5       0.1382  -4.5672 -14.7969   C.ar      1 RES1   0.0000
     6 C6       0.3562  -2.7131 -16.3362   C.ar      1 RES1   0.0000
     7 H7       0.0572  -2.2052 -17.2470   H         1 RES1   0.0000
     8 C8       1.3344  -2.1942 -15.5356   C.ar      1 RES1   0.0000
     9 C9       1.1433  -3.9952 -14.0219   C.ar      1 RES1   0.0000
    10 H10      1.4706  -4.4926 -13.1160   H         1 RES1   0.0000
    11 C11     -0.5064  -5.8517 -14.3707   C.2       1 RES1   0.0000
    12 F12      1.9264  -1.0243 -15.8999   F         1 RES1   0.0000
    13 N13     -1.2641  -7.9324 -14.1719   N.am      1 RES1   0.0000
    14 C14     -1.5666  -9.3941 -14.3408   C.3       1 RES1   0.0000
    15 H15     -1.1186  -9.7259 -15.2763   H         1 RES1   0.0000
    16 C16     -2.1706  -7.8230 -11.8174   C.3       1 RES1   0.0000
    17 H17     -2.7153  -7.0920 -11.2234   H         1 RES1   0.0000
    18 H18     -2.8523  -8.6343 -12.0641   H         1 RES1   0.0000
    19 H19     -1.3682  -8.2284 -11.2046   H         1 RES1   0.0000
    20 C20     -1.1594  -5.9688 -13.1688   C.2       1 RES1   0.0000
    21 C21     -1.4160  -4.9157 -12.1531   C.ar      1 RES1   0.0000
    22 O22     -0.1434  -7.5158 -16.0859   O.2       1 RES1   0.0000
    23 C23     -0.5816  -7.1232 -15.0125   C.2       1 RES1   0.0000
    24 N24     -1.6335  -7.2079 -13.0317   N.pl3     1 RES1   0.0000
    25 C25     -1.2221 -11.6901 -13.3732   C.3       1 RES1   0.0000
    26 H26     -0.8075 -12.2348 -12.5262   H         1 RES1   0.0000
    27 H27     -0.7577 -12.0417 -14.2934   H         1 RES1   0.0000
    28 C28     -3.3397 -11.1607 -14.5510   C.3       1 RES1   0.0000
    29 H29     -2.9390 -11.5089 -15.5019   H         1 RES1   0.0000
    30 H30     -4.4151 -11.3307 -14.5262   H         1 RES1   0.0000
    31 C31     -3.0664  -9.6709 -14.4097   C.3       1 RES1   0.0000
    32 H32     -3.4859  -9.1488 -15.2684   H         1 RES1   0.0000
    33 H33     -3.5379  -9.3072 -13.4979   H         1 RES1   0.0000
    34 C34     -0.9463 -10.2062 -13.2033   C.3       1 RES1   0.0000
    35 H35     -1.3694  -9.8725 -12.2570   H         1 RES1   0.0000
    36 H36      0.1304 -10.0436 -13.1970   H         1 RES1   0.0000
    37 N37     -2.6975 -11.9231 -13.4402   N.4       1 RES1   1.0000
    38 H38     -3.1143 -11.6331 -12.5613   H         1 RES1   0.0000
    39 H39     -2.8656 -12.9137 -13.5839   H         1 RES1   0.0000
    40 N40     -0.8662  -5.0993 -10.9425   N.ar      1 RES1   0.0000
    41 C41     -2.3708  -2.8985 -11.3940   C.ar      1 RES1   0.0000
    42 H42     -2.9709  -2.0147 -11.5841   H         1 RES1   0.0000
    43 N43     -0.5809  -4.3597  -8.7908   N.pl3     1 RES1   0.0000
    44 H44     -1.0709  -3.9666  -7.9872   H         1 RES1   0.0000
    45 C45     -2.1938  -3.7996 -12.4246   C.ar      1 RES1   0.0000
    46 H46     -2.6438  -3.6432 -13.3994   H         1 RES1   0.0000
    47 C47     -1.1127  -4.1667 -10.0084   C.ar      1 RES1   0.0000
    48 N48     -1.8442  -3.0549 -10.1726   N.ar      1 RES1   0.0000
    49 C49      0.6894  -5.0438  -8.5502   C.3       1 RES1   0.0000
    50 H50      1.4853  -4.5102  -9.0923   H         1 RES1   0.0000
    51 C51      0.6677  -6.4850  -9.0204   C.ar      1 RES1   0.0000
    52 C52      0.9818  -4.9640  -7.0564   C.3       1 RES1   0.0000
    53 H53      1.9363  -5.4316  -6.8242   H         1 RES1   0.0000
    54 H54      1.0220  -3.9288  -6.7241   H         1 RES1   0.0000
    55 H55      0.2079  -5.4731  -6.4857   H         1 RES1   0.0000
    56 C56      0.6162  -9.1360  -9.8746   C.ar      1 RES1   0.0000
    57 H57      0.5958 -10.1683 -10.2080   H         1 RES1   0.0000
    58 C58     -0.2434  -7.3853  -8.4871   C.ar      1 RES1   0.0000
    59 H59     -0.9437  -7.0528  -7.7281   H         1 RES1   0.0000
    60 C60      1.5550  -6.9362  -9.9878   C.ar      1 RES1   0.0000
    61 H61      2.2778  -6.2509 -10.4181   H         1 RES1   0.0000
    62 C62      1.5280  -8.2541 -10.4118   C.ar      1 RES1   0.0000
    63 H63      2.2271  -8.5925 -11.1692   H         1 RES1   0.0000
    64 C64     -0.2694  -8.7025  -8.9127   C.ar      1 RES1   0.0000
    65 H65     -0.9889  -9.3944  -8.4877   H         1 RES1   0.0000
@<TRIPOS>BOND
     1     1     5   ar
     2     1     6   ar
     3     1     2    1
     4     3     8   ar
     5     3     9   ar
     6     3     4    1
     7     5     9   ar
     8     5    11    1
     9     6     8   ar
    10     6     7    1
    11     8    12    1
    12     9    10    1
    13    11    20    2
    14    11    23    1
    15    13    14    1
    16    13    23   am
    17    13    24    1
    18    14    31    1
    19    14    34    1
    20    14    15    1
    21    16    24    1
    22    16    17    1
    23    16    18    1
    24    16    19    1
    25    20    21    1
    26    20    24    1
    27    21    40   ar
    28    21    45   ar
    29    22    23    2
    30    25    34    1
    31    25    37    1
    32    25    26    1
    33    25    27    1
    34    28    31    1
    35    28    37    1
    36    28    29    1
    37    28    30    1
    38    31    32    1
    39    31    33    1
    40    34    35    1
    41    34    36    1
    42    37    38    1
    43    37    39    1
    44    40    47   ar
    45    41    45   ar
    46    41    48   ar
    47    41    42    1
    48    43    47    1
    49    43    49    1
    50    43    44    1
    51    45    46    1
    52    47    48   ar
    53    49    51    1
    54    49    52    1
    55    49    50    1
    56    51    58   ar
    57    51    60   ar
    58    52    53    1
    59    52    54    1
    60    52    55    1
    61    56    62   ar
    62    56    64   ar
    63    56    57    1
    64    58    64   ar
    65    58    59    1
    66    60    62   ar
    67    60    61    1
    68    62    63    1
    69    64    65    1
@<TRIPOS>SUBSTRUCTURE
     1 RES1        1 GROUP             0 ****  ****    0  
@<TRIPOS>MOLECULE
LIGAND_00392
    65    69     1     0     0
SMALL
USER_CHARGES
****
Generated from the CSD

@<TRIPOS>ATOM
     1 C1      -0.7027  -3.3903 -14.9781   C.ar      1 RES1   0.0000
     2 H2      -1.7635  -3.4211 -14.7543   H         1 RES1   0.0000
     3 C3       2.0037  -3.2747 -15.5205   C.ar      1 RES1   0.0000
     4 H4       3.0672  -3.2194 -15.7282   H         1 RES1   0.0000
     5 C5       0.0599  -4.5461 -14.8386   C.ar      1 RES1   0.0000
     6 C6      -0.1343  -2.1985 -15.3916   C.ar      1 RES1   0.0000
     7 H7      -0.7388  -1.3050 -15.5067   H         1 RES1   0.0000
     8 C8       1.2073  -2.1727 -15.6497   C.ar      1 RES1   0.0000
     9 C9       1.4207  -4.4628 -15.1196   C.ar      1 RES1   0.0000
    10 H10      2.0424  -5.3462 -15.0278   H         1 RES1   0.0000
    11 C11     -0.5410  -5.8434 -14.3880   C.2       1 RES1   0.0000
    12 F12      1.7741  -1.0026 -16.0515   F         1 RES1   0.0000
    13 N13     -1.2406  -7.9410 -14.1570   N.am      1 RES1   0.0000
    14 C14     -1.5106  -9.4109 -14.3092   C.3       1 RES1   0.0000
    15 H15     -1.0787  -9.7377 -15.2540   H         1 RES1   0.0000
    16 C16     -2.0882  -7.8386 -11.7803   C.3       1 RES1   0.0000
    17 H17     -2.6360  -7.1177 -11.1770   H         1 RES1   0.0000
    18 H18     -2.7550  -8.6688 -12.0043   H         1 RES1   0.0000
    19 H19     -1.2602  -8.2193 -11.1861   H         1 RES1   0.0000
    20 C20     -1.1594  -5.9688 -13.1688   C.2       1 RES1   0.0000
    21 C21     -1.4160  -4.9157 -12.1531   C.ar      1 RES1   0.0000
    22 O22     -0.1808  -7.5094 -16.1020   O.2       1 RES1   0.0000
    23 C23     -0.6007  -7.1206 -15.0199   C.2       1 RES1   0.0000
    24 N24     -1.5984  -7.2184 -13.0119   N.pl3     1 RES1   0.0000
    25 C25     -1.0832 -11.6911 -13.3372   C.3       1 RES1   0.0000
    26 H26     -0.6332 -12.2196 -12.4981   H         1 RES1   0.0000
    27 H27     -0.6343 -12.0371 -14.2670   H         1 RES1   0.0000
    28 C28     -3.2435 -11.2227 -14.4623   C.3       1 RES1   0.0000
    29 H29     -2.8590 -11.5671 -15.4212   H         1 RES1   0.0000
    30 H30     -4.3132 -11.4194 -14.4084   H         1 RES1   0.0000
    31 C31     -3.0042  -9.7256 -14.3371   C.3       1 RES1   0.0000
    32 H32     -3.4588  -9.2199 -15.1877   H         1 RES1   0.0000
    33 H33     -3.4608  -9.3678 -13.4155   H         1 RES1   0.0000
    34 C34     -0.8406 -10.1997 -13.1834   C.3       1 RES1   0.0000
    35 H35     -1.2473  -9.8704 -12.2284   H         1 RES1   0.0000
    36 H36      0.2315 -10.0101 -13.2063   H         1 RES1   0.0000
    37 N37     -2.5536 -11.9614 -13.3641   N.4       1 RES1   1.0000
    38 H38     -2.9545 -11.6761 -12.4764   H         1 RES1   0.0000
    39 H39     -2.7004 -12.9568 -13.4974   H         1 RES1   0.0000
    40 N40     -2.6992  -4.6898 -11.8302   N.ar      1 RES1   0.0000
    41 C41     -0.7580  -3.2243 -10.6488   C.ar      1 RES1   0.0000
    42 H42      0.0265  -2.6440 -10.1743   H         1 RES1   0.0000
    43 N43     -4.2293  -3.4806 -10.6241   N.pl3     1 RES1   0.0000
    44 H44     -4.4767  -2.5434 -10.3065   H         1 RES1   0.0000
    45 C45     -0.3913  -4.1856 -11.5689   C.ar      1 RES1   0.0000
    46 H46      0.6486  -4.3597 -11.8246   H         1 RES1   0.0000
    47 C47     -2.9451  -3.7222 -10.9322   C.ar      1 RES1   0.0000
    48 N48     -2.0280  -2.9671 -10.3100   N.ar      1 RES1   0.0000
    49 C49     -5.2842  -4.4935 -10.6548   C.3       1 RES1   0.0000
    50 H50     -5.0184  -5.3005  -9.9545   H         1 RES1   0.0000
    51 C51     -5.4693  -5.0934 -12.0347   C.ar      1 RES1   0.0000
    52 C52     -6.5712  -3.8354 -10.1713   C.3       1 RES1   0.0000
    53 H53     -7.3862  -4.5556 -10.1431   H         1 RES1   0.0000
    54 H54     -6.4455  -3.4268  -9.1708   H         1 RES1   0.0000
    55 H55     -6.8602  -3.0232 -10.8350   H         1 RES1   0.0000
    56 C56     -5.8127  -6.1817 -14.5760   C.ar      1 RES1   0.0000
    57 H57     -5.9457  -6.6056 -15.5659   H         1 RES1   0.0000
    58 C58     -5.8156  -4.2890 -13.1109   C.ar      1 RES1   0.0000
    59 H59     -5.9548  -3.2235 -12.9605   H         1 RES1   0.0000
    60 C60     -5.3002  -6.4538 -12.2530   C.ar      1 RES1   0.0000
    61 H61     -5.0311  -7.1030 -11.4264   H         1 RES1   0.0000
    62 C62     -5.4709  -6.9933 -13.5168   C.ar      1 RES1   0.0000
    63 H63     -5.3347  -8.0583 -13.6726   H         1 RES1   0.0000
    64 C64     -5.9851  -4.8300 -14.3740   C.ar      1 RES1   0.0000
    65 H65     -6.2543  -4.1879 -15.2060   H         1 RES1   0.0000
@<TRIPOS>BOND
     1     1     5   ar
     2     1     6   ar
     3     1     2    1
     4     3     8   ar
     5     3     9   ar
     6     3     4    1
     7     5     9   ar
     8     5    11    1
     9     6     8   ar
    10     6     7    1
    11     8    12    1
    12     9    10    1
    13    11    20    2
    14    11    23    1
    15    13    14    1
    16    13    23   am
    17    13    24    1
    18    14    31    1
    19    14    34    1
    20    14    15    1
    21    16    24    1
    22    16    17    1
    23    16    18    1
    24    16    19    1
    25    20    21    1
    26    20    24    1
    27    21    40   ar
    28    21    45   ar
    29    22    23    2
    30    25    34    1
    31    25    37    1
    32    25    26    1
    33    25    27    1
    34    28    31    1
    35    28    37    1
    36    28    29    1
    37    28    30    1
    38    31    32    1
    39    31    33    1
    40    34    35    1
    41    34    36    1
    42    37    38    1
    43    37    39    1
    44    40    47   ar
    45    41    45   ar
    46    41    48   ar
    47    41    42    1
    48    43    47    1
    49    43    49    1
    50    43    44    1
    51    45    46    1
    52    47    48   ar
    53    49    51    1
    54    49    52    1
    55    49    50    1
    56    51    58   ar
    57    51    60   ar
    58    52    53    1
    59    52    54    1
    60    52    55    1
    61    56    62   ar
    62    56    64   ar
    63    56    57    1
    64    58    64   ar
    65    58    59    1
    66    60    62   ar
    67    60    61    1
    68    62    63    1
    69    64    65    1
@<TRIPOS>SUBSTRUCTURE
     1 RES1        1 GROUP             0 ****  ****    0  
@<TRIPOS>MOLECULE
LIGAND_00393
    65    69     1     0     0
SMALL
USER_CHARGES
****
Generated from the CSD

@<TRIPOS>ATOM
     1 C1      -0.4280  -3.4234 -14.9911   C.ar      1 RES1   0.0000
     2 H2      -1.5099  -3.4068 -14.9158   H         1 RES1   0.0000
     3 C3       2.3297  -3.4279 -15.1558   C.ar      1 RES1   0.0000
     4 H4       3.4130  -3.4196 -15.2153   H         1 RES1   0.0000
     5 C5       0.2584  -4.6050 -14.7273   C.ar      1 RES1   0.0000
     6 C6       0.2420  -2.2649 -15.3427   C.ar      1 RES1   0.0000
     7 H7      -0.3024  -1.3511 -15.5558   H         1 RES1   0.0000
     8 C8       1.6063  -2.2984 -15.4131   C.ar      1 RES1   0.0000
     9 C9       1.6472  -4.5824 -14.8188   C.ar      1 RES1   0.0000
    10 H10      2.2122  -5.4873 -14.6265   H         1 RES1   0.0000
    11 C11     -0.4534  -5.8667 -14.3417   C.2       1 RES1   0.0000
    12 F12      2.2721  -1.1613 -15.7529   F         1 RES1   0.0000
    13 N13     -1.2998  -7.9174 -14.1965   N.am      1 RES1   0.0000
    14 C14     -1.6524  -9.3643 -14.3934   C.3       1 RES1   0.0000
    15 H15     -1.1797  -9.7050 -15.3134   H         1 RES1   0.0000
    16 C16     -2.2976  -7.7937 -11.8799   C.3       1 RES1   0.0000
    17 H17     -2.8376  -7.0472 -11.3010   H         1 RES1   0.0000
    18 H18     -2.9995  -8.5753 -12.1629   H         1 RES1   0.0000
    19 H19     -1.5376  -8.2358 -11.2391   H         1 RES1   0.0000
    20 C20     -1.1594  -5.9688 -13.1688   C.2       1 RES1   0.0000
    21 C21     -1.4160  -4.9157 -12.1531   C.ar      1 RES1   0.0000
    22 O22     -0.0858  -7.5282 -16.0585   O.2       1 RES1   0.0000
    23 C23     -0.5520  -7.1283 -14.9997   C.2       1 RES1   0.0000
    24 N24     -1.6871  -7.1893 -13.0645   N.pl3     1 RES1   0.0000
    25 C25     -1.4385 -11.6810 -13.4375   C.3       1 RES1   0.0000
    26 H26     -1.0808 -12.2495 -12.5803   H         1 RES1   0.0000
    27 H27     -0.9509 -12.0423 -14.3417   H         1 RES1   0.0000
    28 C28     -3.4835 -11.0570 -14.6947   C.3       1 RES1   0.0000
    29 H29     -3.0581 -11.4121 -15.6322   H         1 RES1   0.0000
    30 H30     -4.5648 -11.1844 -14.7155   H         1 RES1   0.0000
    31 C31     -3.1578  -9.5806 -14.5262   C.3       1 RES1   0.0000
    32 H32     -3.5208  -9.0344 -15.3956   H         1 RES1   0.0000
    33 H33     -3.6517  -9.2069 -13.6305   H         1 RES1   0.0000
    34 C34     -1.1118 -10.2109 -13.2404   C.3       1 RES1   0.0000
    35 H35     -1.5600  -9.8693 -12.3086   H         1 RES1   0.0000
    36 H36     -0.0307 -10.0912 -13.1885   H         1 RES1   0.0000
    37 N37     -2.9179 -11.8545 -13.5670   N.4       1 RES1   1.0000
    38 H38     -3.3587 -11.5563 -12.7027   H         1 RES1   0.0000
    39 H39     -3.1189 -12.8363 -13.7281   H         1 RES1   0.0000
    40 N40     -0.8662  -5.0993 -10.9425   N.ar      1 RES1   0.0000
    41 C41     -2.3708  -2.8985 -11.3940   C.ar      1 RES1   0.0000
    42 H42     -2.9709  -2.0147 -11.5841   H         1 RES1   0.0000
    43 N43     -0.5809  -4.3597  -8.7908   N.pl3     1 RES1   0.0000
    44 H44     -1.0569  -3.9446  -7.9898   H         1 RES1   0.0000
    45 C45     -2.1938  -3.7996 -12.4246   C.ar      1 RES1   0.0000
    46 H46     -2.6438  -3.6432 -13.3994   H         1 RES1   0.0000
    47 C47     -1.1127  -4.1667 -10.0084   C.ar      1 RES1   0.0000
    48 N48     -1.8442  -3.0549 -10.1726   N.ar      1 RES1   0.0000
    49 C49      0.6719  -5.0743  -8.5474   C.3       1 RES1   0.0000
    50 H50      1.4828  -4.5564  -9.0826   H         1 RES1   0.0000
    51 C51      0.6194  -6.5121  -9.0254   C.ar      1 RES1   0.0000
    52 C52      0.9583  -5.0092  -7.0517   C.3       1 RES1   0.0000
    53 H53      1.9006  -5.5000  -6.8172   H         1 RES1   0.0000
    54 H54      1.0207  -3.9769  -6.7137   H         1 RES1   0.0000
    55 H55      0.1699  -5.5032  -6.4877   H         1 RES1   0.0000
    56 C56      0.5110  -9.1567  -9.8942   C.ar      1 RES1   0.0000
    57 H57      0.4685 -10.1864 -10.2332   H         1 RES1   0.0000
    58 C58     -0.3168  -7.3932  -8.5037   C.ar      1 RES1   0.0000
    59 H59     -1.0146  -7.0480  -7.7479   H         1 RES1   0.0000
    60 C60      1.5028  -6.9794  -9.9888   C.ar      1 RES1   0.0000
    61 H61      2.2448  -6.3093 -10.4102   H         1 RES1   0.0000
    62 C62      1.4475  -8.2940 -10.4200   C.ar      1 RES1   0.0000
    63 H63      2.1439  -8.6451 -11.1741   H         1 RES1   0.0000
    64 C64     -0.3711  -8.7072  -8.9365   C.ar      1 RES1   0.0000
    65 H65     -1.1100  -9.3838  -8.5204   H         1 RES1   0.0000
@<TRIPOS>BOND
     1     1     5   ar
     2     1     6   ar
     3     1     2    1
     4     3     8   ar
     5     3     9   ar
     6     3     4    1
     7     5     9   ar
     8     5    11    1
     9     6     8   ar
    10     6     7    1
    11     8    12    1
    12     9    10    1
    13    11    20    2
    14    11    23    1
    15    13    14    1
    16    13    23   am
    17    13    24    1
    18    14    31    1
    19    14    34    1
    20    14    15    1
    21    16    24    1
    22    16    17    1
    23    16    18    1
    24    16    19    1
    25    20    21    1
    26    20    24    1
    27    21    40   ar
    28    21    45   ar
    29    22    23    2
    30    25    34    1
    31    25    37    1
    32    25    26    1
    33    25    27    1
    34    28    31    1
    35    28    37    1
    36    28    29    1
    37    28    30    1
    38    31    32    1
    39    31    33    1
    40    34    35    1
    41    34    36    1
    42    37    38    1
    43    37    39    1
    44    40    47   ar
    45    41    45   ar
    46    41    48   ar
    47    41    42    1
    48    43    47    1
    49    43    49    1
    50    43    44    1
    51    45    46    1
    52    47    48   ar
    53    49    51    1
    54    49    52    1
    55    49    50    1
    56    51    58   ar
    57    51    60   ar
    58    52    53    1
    59    52    54    1
    60    52    55    1
    61    56    62   ar
    62    56    64   ar
    63    56    57    1
    64    58    64   ar
    65    58    59    1
    66    60    62   ar
    67    60    61    1
    68    62    63    1
    69    64    65    1
@<TRIPOS>SUBSTRUCTURE
     1 RES1        1 GROUP             0 ****  ****    0  
@<TRIPOS>MOLECULE
LIGAND_00394
    65    69     1     0     0
SMALL
USER_CHARGES
****
Generated from the CSD

@<TRIPOS>ATOM
     1 C1      -0.7650  -3.8364 -15.9786   C.ar      1 RES1   0.0000
     2 H2      -1.6374  -4.2797 -16.4466   H         1 RES1   0.0000
     3 C3       1.4333  -2.6677 -14.7814   C.ar      1 RES1   0.0000
     4 H4       2.2915  -2.1987 -14.3115   H         1 RES1   0.0000
     5 C5      -0.1366  -4.5042 -14.9317   C.ar      1 RES1   0.0000
     6 C6      -0.3034  -2.6137 -16.4327   C.ar      1 RES1   0.0000
     7 H7      -0.7942  -2.1052 -17.2558   H         1 RES1   0.0000
     8 C8       0.7845  -2.0602 -15.8183   C.ar      1 RES1   0.0000
     9 C9       0.9701  -3.8958 -14.3461   C.ar      1 RES1   0.0000
    10 H10      1.4873  -4.3922 -13.5329   H         1 RES1   0.0000
    11 C11     -0.6274  -5.8275 -14.4264   C.2       1 RES1   0.0000
    12 F12      1.2407  -0.8552 -16.2561   F         1 RES1   0.0000
    13 N13     -1.1812  -7.9591 -14.1233   N.am      1 RES1   0.0000
    14 C14     -1.3695  -9.4450 -14.2382   C.3       1 RES1   0.0000
    15 H15     -0.9786  -9.7614 -15.2041   H         1 RES1   0.0000
    16 C16     -1.8830  -7.8670 -11.6991   C.3       1 RES1   0.0000
    17 H17     -2.4352  -7.1701 -11.0719   H         1 RES1   0.0000
    18 H18     -2.5104  -8.7396 -11.8690   H         1 RES1   0.0000
    19 H19     -0.9976  -8.1866 -11.1536   H         1 RES1   0.0000
    20 C20     -1.1594  -5.9688 -13.1688   C.2       1 RES1   0.0000
    21 C21     -1.4160  -4.9157 -12.1531   C.ar      1 RES1   0.0000
    22 O22     -0.2738  -7.4980 -16.1373   O.2       1 RES1   0.0000
    23 C23     -0.6481  -7.1166 -15.0360   C.2       1 RES1   0.0000
    24 N24     -1.5103  -7.2398 -12.9675   N.pl3     1 RES1   0.0000
    25 C25     -0.7430 -11.6782 -13.2648   C.3       1 RES1   0.0000
    26 H26     -0.2097 -12.1640 -12.4490   H         1 RES1   0.0000
    27 H27     -0.3329 -12.0125 -14.2166   H         1 RES1   0.0000
    28 C28     -2.9942 -11.3605 -14.2564   C.3       1 RES1   0.0000
    29 H29     -2.6502 -11.6976 -15.2331   H         1 RES1   0.0000
    30 H30     -4.0444 -11.6204 -14.1318   H         1 RES1   0.0000
    31 C31     -2.8398  -9.8498 -14.1667   C.3       1 RES1   0.0000
    32 H32     -3.3771  -9.3872 -14.9933   H         1 RES1   0.0000
    33 H33     -3.2588  -9.5043 -13.2228   H         1 RES1   0.0000
    34 C34     -0.5832 -10.1724 -13.1469   C.3       1 RES1   0.0000
    35 H35     -0.9485  -9.8518 -12.1724   H         1 RES1   0.0000
    36 H36      0.4717  -9.9189 -13.2404   H         1 RES1   0.0000
    37 N37     -2.1928 -12.0371 -13.1945   N.4       1 RES1   1.0000
    38 H38     -2.5540 -11.7612 -12.2869   H         1 RES1   0.0000
    39 H39     -2.2864 -13.0417 -13.3048   H         1 RES1   0.0000
    40 N40     -2.6992  -4.6898 -11.8302   N.ar      1 RES1   0.0000
    41 C41     -0.7580  -3.2243 -10.6488   C.ar      1 RES1   0.0000
    42 H42      0.0265  -2.6440 -10.1743   H         1 RES1   0.0000
    43 N43     -4.2293  -3.4806 -10.6241   N.pl3     1 RES1   0.0000
    44 H44     -4.4768  -2.5434 -10.3067   H         1 RES1   0.0000
    45 C45     -0.3913  -4.1856 -11.5689   C.ar      1 RES1   0.0000
    46 H46      0.6486  -4.3597 -11.8246   H         1 RES1   0.0000
    47 C47     -2.9451  -3.7222 -10.9322   C.ar      1 RES1   0.0000
    48 N48     -2.0280  -2.9671 -10.3100   N.ar      1 RES1   0.0000
    49 C49     -5.2841  -4.4935 -10.6545   C.3       1 RES1   0.0000
    50 H50     -5.0182  -5.3005  -9.9542   H         1 RES1   0.0000
    51 C51     -5.4694  -5.0936 -12.0344   C.ar      1 RES1   0.0000
    52 C52     -6.5711  -3.8355 -10.1709   C.3       1 RES1   0.0000
    53 H53     -7.3861  -4.5558 -10.1425   H         1 RES1   0.0000
    54 H54     -6.4452  -3.4268  -9.1705   H         1 RES1   0.0000
    55 H55     -6.8602  -3.0233 -10.8346   H         1 RES1   0.0000
    56 C56     -5.8132  -6.1821 -14.5756   C.ar      1 RES1   0.0000
    57 H57     -5.9464  -6.6060 -15.5653   H         1 RES1   0.0000
    58 C58     -5.8160  -4.2893 -13.1106   C.ar      1 RES1   0.0000
    59 H59     -5.9552  -3.2238 -12.9602   H         1 RES1   0.0000
    60 C60     -5.3003  -6.4540 -12.2526   C.ar      1 RES1   0.0000
    61 H61     -5.0310  -7.1031 -11.4260   H         1 RES1   0.0000
    62 C62     -5.4711  -6.9936 -13.5163   C.ar      1 RES1   0.0000
    63 H63     -5.3350  -8.0586 -13.6721   H         1 RES1   0.0000
    64 C64     -5.9857  -4.8304 -14.3736   C.ar      1 RES1   0.0000
    65 H65     -6.2550  -4.1883 -15.2056   H         1 RES1   0.0000
@<TRIPOS>BOND
     1     1     5   ar
     2     1     6   ar
     3     1     2    1
     4     3     8   ar
     5     3     9   ar
     6     3     4    1
     7     5     9   ar
     8     5    11    1
     9     6     8   ar
    10     6     7    1
    11     8    12    1
    12     9    10    1
    13    11    20    2
    14    11    23    1
    15    13    14    1
    16    13    23   am
    17    13    24    1
    18    14    31    1
    19    14    34    1
    20    14    15    1
    21    16    24    1
    22    16    17    1
    23    16    18    1
    24    16    19    1
    25    20    21    1
    26    20    24    1
    27    21    40   ar
    28    21    45   ar
    29    22    23    2
    30    25    34    1
    31    25    37    1
    32    25    26    1
    33    25    27    1
    34    28    31    1
    35    28    37    1
    36    28    29    1
    37    28    30    1
    38    31    32    1
    39    31    33    1
    40    34    35    1
    41    34    36    1
    42    37    38    1
    43    37    39    1
    44    40    47   ar
    45    41    45   ar
    46    41    48   ar
    47    41    42    1
    48    43    47    1
    49    43    49    1
    50    43    44    1
    51    45    46    1
    52    47    48   ar
    53    49    51    1
    54    49    52    1
    55    49    50    1
    56    51    58   ar
    57    51    60   ar
    58    52    53    1
    59    52    54    1
    60    52    55    1
    61    56    62   ar
    62    56    64   ar
    63    56    57    1
    64    58    64   ar
    65    58    59    1
    66    60    62   ar
    67    60    61    1
    68    62    63    1
    69    64    65    1
@<TRIPOS>SUBSTRUCTURE
     1 RES1        1 GROUP             0 ****  ****    0  
@<TRIPOS>MOLECULE
LIGAND_00395
    65    69     1     0     0
SMALL
USER_CHARGES
****
Generated from the CSD

@<TRIPOS>ATOM
     1 C1      -0.7657  -3.8365 -15.9787   C.ar      1 RES1   0.0000
     2 H2      -1.6380  -4.2798 -16.4466   H         1 RES1   0.0000
     3 C3       1.4327  -2.6675 -14.7819   C.ar      1 RES1   0.0000
     4 H4       2.2908  -2.1983 -14.3121   H         1 RES1   0.0000
     5 C5      -0.1370  -4.5041 -14.9319   C.ar      1 RES1   0.0000
     6 C6      -0.3042  -2.6137 -16.4329   C.ar      1 RES1   0.0000
     7 H7      -0.7952  -2.1053 -17.2560   H         1 RES1   0.0000
     8 C8       0.7837  -2.0600 -15.8187   C.ar      1 RES1   0.0000
     9 C9       0.9697  -3.8956 -14.3465   C.ar      1 RES1   0.0000
    10 H10      1.4870  -4.3918 -13.5333   H         1 RES1   0.0000
    11 C11     -0.6275  -5.8274 -14.4265   C.2       1 RES1   0.0000
    12 F12      1.2397  -0.8550 -16.2566   F         1 RES1   0.0000
    13 N13     -1.1811  -7.9592 -14.1232   N.am      1 RES1   0.0000
    14 C14     -1.3692  -9.4451 -14.2380   C.3       1 RES1   0.0000
    15 H15     -0.9783  -9.7615 -15.2040   H         1 RES1   0.0000
    16 C16     -1.8826  -7.8670 -11.6989   C.3       1 RES1   0.0000
    17 H17     -2.4348  -7.1702 -11.0717   H         1 RES1   0.0000
    18 H18     -2.5098  -8.7398 -11.8688   H         1 RES1   0.0000
    19 H19     -0.9971  -8.1865 -11.1535   H         1 RES1   0.0000
    20 C20     -1.1594  -5.9688 -13.1688   C.2       1 RES1   0.0000
    21 C21     -1.4160  -4.9157 -12.1531   C.ar      1 RES1   0.0000
    22 O22     -0.2740  -7.4980 -16.1374   O.2       1 RES1   0.0000
    23 C23     -0.6482  -7.1166 -15.0361   C.2       1 RES1   0.0000
    24 N24     -1.5101  -7.2398 -12.9674   N.pl3     1 RES1   0.0000
    25 C25     -0.7424 -11.6781 -13.2646   C.3       1 RES1   0.0000
    26 H26     -0.2090 -12.1638 -12.4488   H         1 RES1   0.0000
    27 H27     -0.3323 -12.0124 -14.2164   H         1 RES1   0.0000
    28 C28     -2.9937 -11.3607 -14.2561   C.3       1 RES1   0.0000
    29 H29     -2.6497 -11.6978 -15.2328   H         1 RES1   0.0000
    30 H30     -4.0438 -11.6208 -14.1315   H         1 RES1   0.0000
    31 C31     -2.8395  -9.8500 -14.1665   C.3       1 RES1   0.0000
    32 H32     -3.3768  -9.3875 -14.9931   H         1 RES1   0.0000
    33 H33     -3.2585  -9.5045 -13.2226   H         1 RES1   0.0000
    34 C34     -0.5828 -10.1723 -13.1467   C.3       1 RES1   0.0000
    35 H35     -0.9481  -9.8517 -12.1722   H         1 RES1   0.0000
    36 H36      0.4721  -9.9187 -13.2403   H         1 RES1   0.0000
    37 N37     -2.1922 -12.0372 -13.1942   N.4       1 RES1   1.0000
    38 H38     -2.5534 -11.7613 -12.2866   H         1 RES1   0.0000
    39 H39     -2.2856 -13.0418 -13.3044   H         1 RES1   0.0000
    40 N40     -2.6992  -4.6898 -11.8302   N.ar      1 RES1   0.0000
    41 C41     -0.7580  -3.2243 -10.6488   C.ar      1 RES1   0.0000
    42 H42      0.0265  -2.6440 -10.1743   H         1 RES1   0.0000
    43 N43     -4.2293  -3.4806 -10.6241   N.pl3     1 RES1   0.0000
    44 H44     -4.8968  -4.2456 -10.7221   H         1 RES1   0.0000
    45 C45     -0.3913  -4.1856 -11.5689   C.ar      1 RES1   0.0000
    46 H46      0.6486  -4.3597 -11.8246   H         1 RES1   0.0000
    47 C47     -2.9451  -3.7222 -10.9322   C.ar      1 RES1   0.0000
    48 N48     -2.0280  -2.9671 -10.3100   N.ar      1 RES1   0.0000
    49 C49     -4.7425  -2.1727 -10.2171   C.3       1 RES1   0.0000
    50 H50     -4.5489  -1.4509 -11.0257   H         1 RES1   0.0000
    51 C51     -4.0865  -1.6638  -8.9485   C.ar      1 RES1   0.0000
    52 C52     -6.2500  -2.3040 -10.0342   C.3       1 RES1   0.0000
    53 H53     -6.6906  -1.3474  -9.7612   H         1 RES1   0.0000
    54 H54     -6.7235  -2.6454 -10.9523   H         1 RES1   0.0000
    55 H55     -6.4807  -3.0196  -9.2478   H         1 RES1   0.0000
    56 C56     -2.8863  -0.7411  -6.6100   C.ar      1 RES1   0.0000
    57 H57     -2.4182  -0.3820  -5.6995   H         1 RES1   0.0000
    58 C58     -4.1820  -2.3869  -7.7683   C.ar      1 RES1   0.0000
    59 H59     -4.7312  -3.3225  -7.7560   H         1 RES1   0.0000
    60 C60     -3.3810  -0.4683  -8.9368   C.ar      1 RES1   0.0000
    61 H61     -3.2942   0.1153  -9.8473   H         1 RES1   0.0000
    62 C62     -2.7846  -0.0112  -7.7738   C.ar      1 RES1   0.0000
    63 H63     -2.2358   0.9247  -7.7797   H         1 RES1   0.0000
    64 C64     -3.5845  -1.9286  -6.6065   C.ar      1 RES1   0.0000
    65 H65     -3.6665  -2.5061  -5.6917   H         1 RES1   0.0000
@<TRIPOS>BOND
     1     1     5   ar
     2     1     6   ar
     3     1     2    1
     4     3     8   ar
     5     3     9   ar
     6     3     4    1
     7     5     9   ar
     8     5    11    1
     9     6     8   ar
    10     6     7    1
    11     8    12    1
    12     9    10    1
    13    11    20    2
    14    11    23    1
    15    13    14    1
    16    13    23   am
    17    13    24    1
    18    14    31    1
    19    14    34    1
    20    14    15    1
    21    16    24    1
    22    16    17    1
    23    16    18    1
    24    16    19    1
    25    20    21    1
    26    20    24    1
    27    21    40   ar
    28    21    45   ar
    29    22    23    2
    30    25    34    1
    31    25    37    1
    32    25    26    1
    33    25    27    1
    34    28    31    1
    35    28    37    1
    36    28    29    1
    37    28    30    1
    38    31    32    1
    39    31    33    1
    40    34    35    1
    41    34    36    1
    42    37    38    1
    43    37    39    1
    44    40    47   ar
    45    41    45   ar
    46    41    48   ar
    47    41    42    1
    48    43    47    1
    49    43    49    1
    50    43    44    1
    51    45    46    1
    52    47    48   ar
    53    49    51    1
    54    49    52    1
    55    49    50    1
    56    51    58   ar
    57    51    60   ar
    58    52    53    1
    59    52    54    1
    60    52    55    1
    61    56    62   ar
    62    56    64   ar
    63    56    57    1
    64    58    64   ar
    65    58    59    1
    66    60    62   ar
    67    60    61    1
    68    62    63    1
    69    64    65    1
@<TRIPOS>SUBSTRUCTURE
     1 RES1        1 GROUP             0 ****  ****    0  
@<TRIPOS>MOLECULE
LIGAND_00396
    65    69     1     0     0
SMALL
USER_CHARGES
****
Generated from the CSD

@<TRIPOS>ATOM
     1 C1       0.1300  -3.9318 -15.8287   C.ar      1 RES1   0.0000
     2 H2      -0.6361  -4.2741 -16.5159   H         1 RES1   0.0000
     3 C3       2.0627  -3.0175 -14.0793   C.ar      1 RES1   0.0000
     4 H4       2.8182  -2.6478 -13.3938   H         1 RES1   0.0000
     5 C5       0.3673  -4.6455 -14.6578   C.ar      1 RES1   0.0000
     6 C6       0.8482  -2.7890 -16.1332   C.ar      1 RES1   0.0000
     7 H7       0.6627  -2.2447 -17.0531   H         1 RES1   0.0000
     8 C8       1.7956  -2.3606 -15.2465   C.ar      1 RES1   0.0000
     9 C9       1.3474  -4.1659 -13.7934   C.ar      1 RES1   0.0000
    10 H10      1.5623  -4.7017 -12.8759   H         1 RES1   0.0000
    11 C11     -0.4051  -5.8831 -14.3126   C.2       1 RES1   0.0000
    12 F12      2.5020  -1.2342 -15.5368   F         1 RES1   0.0000
    13 N13     -1.3320  -7.9018 -14.2209   N.am      1 RES1   0.0000
    14 C14     -1.7301  -9.3327 -14.4458   C.3       1 RES1   0.0000
    15 H15     -1.2482  -9.6778 -15.3594   H         1 RES1   0.0000
    16 C16     -2.4136  -7.7609 -11.9431   C.3       1 RES1   0.0000
    17 H17     -3.0168  -7.0167 -11.4273   H         1 RES1   0.0000
    18 H18     -3.0691  -8.5719 -12.2537   H         1 RES1   0.0000
    19 H19     -1.6901  -8.1612 -11.2360   H         1 RES1   0.0000
    20 C20     -1.1594  -5.9688 -13.1688   C.2       1 RES1   0.0000
    21 C21     -1.4160  -4.9157 -12.1531   C.ar      1 RES1   0.0000
    22 O22     -0.0330  -7.5421 -16.0307   O.2       1 RES1   0.0000
    23 C23     -0.5248  -7.1342 -14.9867   C.2       1 RES1   0.0000
    24 N24     -1.7357  -7.1695 -13.0973   N.pl3     1 RES1   0.0000
    25 C25     -1.6192 -11.6678 -13.5175   C.3       1 RES1   0.0000
    26 H26     -1.3016 -12.2597 -12.6604   H         1 RES1   0.0000
    27 H27     -1.1236 -12.0341 -14.4153   H         1 RES1   0.0000
    28 C28     -3.6115 -10.9560 -14.8122   C.3       1 RES1   0.0000
    29 H29     -3.1770 -11.3135 -15.7446   H         1 RES1   0.0000
    30 H30     -4.6958 -11.0450 -14.8594   H         1 RES1   0.0000
    31 C31     -3.2386  -9.4942 -14.6159   C.3       1 RES1   0.0000
    32 H32     -3.5620  -8.9243 -15.4856   H         1 RES1   0.0000
    33 H33     -3.7399  -9.1152 -13.7265   H         1 RES1   0.0000
    34 C34     -1.2462 -10.2127 -13.2927   C.3       1 RES1   0.0000
    35 H35     -1.7038  -9.8679 -12.3666   H         1 RES1   0.0000
    36 H36     -0.1631 -10.1318 -13.2145   H         1 RES1   0.0000
    37 N37     -3.1004 -11.7875 -13.6831   N.4       1 RES1   1.0000
    38 H38     -3.5505 -11.4854 -12.8250   H         1 RES1   0.0000
    39 H39     -3.3316 -12.7594 -13.8624   H         1 RES1   0.0000
    40 N40     -1.5946  -3.6669 -12.6117   N.ar      1 RES1   0.0000
    41 C41     -1.6913  -4.1267  -9.9489   C.ar      1 RES1   0.0000
    42 H42     -1.7346  -4.3195  -8.8820   H         1 RES1   0.0000
    43 N43     -1.9592  -1.4491 -12.1568   N.pl3     1 RES1   0.0000
    44 H44     -1.8888  -1.2937 -13.1624   H         1 RES1   0.0000
    45 C45     -1.4588  -5.1926 -10.7945   C.ar      1 RES1   0.0000
    46 H46     -1.3141  -6.1984 -10.4141   H         1 RES1   0.0000
    47 C47     -1.8016  -2.7021 -11.7010   C.ar      1 RES1   0.0000
    48 N48     -1.8650  -2.8678 -10.3718   N.ar      1 RES1   0.0000
    49 C49     -2.1627  -0.2836 -11.2968   C.3       1 RES1   0.0000
    50 H50     -3.0367  -0.4688 -10.6532   H         1 RES1   0.0000
    51 C51     -2.4079   0.9846 -12.0905   C.ar      1 RES1   0.0000
    52 C52     -0.9298  -0.1410 -10.4120   C.3       1 RES1   0.0000
    53 H53     -0.7805   0.8970 -10.1221   H         1 RES1   0.0000
    54 H54     -1.0323  -0.7344  -9.5059   H         1 RES1   0.0000
    55 H55     -0.0386  -0.4770 -10.9379   H         1 RES1   0.0000
    56 C56     -2.8491   3.3096 -13.5603   C.ar      1 RES1   0.0000
    57 H57     -3.0216   4.2148 -14.1329   H         1 RES1   0.0000
    58 C58     -1.7954   1.1739 -13.3210   C.ar      1 RES1   0.0000
    59 H59     -1.1364   0.4073 -13.7150   H         1 RES1   0.0000
    60 C60     -3.2440   1.9817 -11.6073   C.ar      1 RES1   0.0000
    61 H61     -3.7327   1.8569 -10.6467   H         1 RES1   0.0000
    62 C62     -3.4627   3.1367 -12.3391   C.ar      1 RES1   0.0000
    63 H63     -4.1192   3.9073 -11.9491   H         1 RES1   0.0000
    64 C64     -2.0158   2.3290 -14.0517   C.ar      1 RES1   0.0000
    65 H65     -1.5310   2.4618 -15.0131   H         1 RES1   0.0000
@<TRIPOS>BOND
     1     1     5   ar
     2     1     6   ar
     3     1     2    1
     4     3     8   ar
     5     3     9   ar
     6     3     4    1
     7     5     9   ar
     8     5    11    1
     9     6     8   ar
    10     6     7    1
    11     8    12    1
    12     9    10    1
    13    11    20    2
    14    11    23    1
    15    13    14    1
    16    13    23   am
    17    13    24    1
    18    14    31    1
    19    14    34    1
    20    14    15    1
    21    16    24    1
    22    16    17    1
    23    16    18    1
    24    16    19    1
    25    20    21    1
    26    20    24    1
    27    21    40   ar
    28    21    45   ar
    29    22    23    2
    30    25    34    1
    31    25    37    1
    32    25    26    1
    33    25    27    1
    34    28    31    1
    35    28    37    1
    36    28    29    1
    37    28    30    1
    38    31    32    1
    39    31    33    1
    40    34    35    1
    41    34    36    1
    42    37    38    1
    43    37    39    1
    44    40    47   ar
    45    41    45   ar
    46    41    48   ar
    47    41    42    1
    48    43    47    1
    49    43    49    1
    50    43    44    1
    51    45    46    1
    52    47    48   ar
    53    49    51    1
    54    49    52    1
    55    49    50    1
    56    51    58   ar
    57    51    60   ar
    58    52    53    1
    59    52    54    1
    60    52    55    1
    61    56    62   ar
    62    56    64   ar
    63    56    57    1
    64    58    64   ar
    65    58    59    1
    66    60    62   ar
    67    60    61    1
    68    62    63    1
    69    64    65    1
@<TRIPOS>SUBSTRUCTURE
     1 RES1        1 GROUP             0 ****  ****    0  
@<TRIPOS>MOLECULE
LIGAND_00397
    65    69     1     0     0
SMALL
USER_CHARGES
****
Generated from the CSD

@<TRIPOS>ATOM
     1 C1      -0.4201  -4.1486 -16.7354   C.ar      1 RES1   0.0000
     2 H2      -1.3920  -4.4351 -17.1223   H         1 RES1   0.0000
     3 C3       2.0415  -3.3742 -15.7492   C.ar      1 RES1   0.0000
     4 H4       3.0054  -3.0593 -15.3633   H         1 RES1   0.0000
     5 C5       0.0983  -4.8126 -15.6276   C.ar      1 RES1   0.0000
     6 C6       0.2766  -3.1244 -17.3518   C.ar      1 RES1   0.0000
     7 H7      -0.1314  -2.6191 -18.2208   H         1 RES1   0.0000
     8 C8       1.4904  -2.7626 -16.8389   C.ar      1 RES1   0.0000
     9 C9       1.3411  -4.4054 -15.1506   C.ar      1 RES1   0.0000
    10 H10      1.7769  -4.9061 -14.2936   H         1 RES1   0.0000
    11 C11     -0.6465  -5.9213 -14.9469   C.2       1 RES1   0.0000
    12 F12      2.1788  -1.7524 -17.4368   F         1 RES1   0.0000
    13 N13     -1.2406  -7.9410 -14.1570   N.am      1 RES1   0.0000
    14 C14     -1.5106  -9.4109 -14.3092   C.3       1 RES1   0.0000
    15 H15     -1.0402  -9.7470 -15.2321   H         1 RES1   0.0000
    16 C16     -3.0175  -7.2154 -12.6884   C.3       1 RES1   0.0000
    17 H17     -4.0862  -7.3416 -12.8488   H         1 RES1   0.0000
    18 H18     -2.6496  -8.0900 -12.1557   H         1 RES1   0.0000
    19 H19     -2.8698  -6.3444 -12.0535   H         1 RES1   0.0000
    20 C20     -1.8662  -5.8070 -14.3768   C.2       1 RES1   0.0000
    21 C21     -2.6990  -4.5904 -14.1952   C.ar      1 RES1   0.0000
    22 O22      0.7594  -7.8641 -15.2858   O.2       1 RES1   0.0000
    23 C23     -0.2262  -7.2912 -14.8399   C.2       1 RES1   0.0000
    24 N24     -2.3177  -7.0507 -13.9630   N.3       1 RES1   0.0000
    25 C25     -1.1357 -11.6851 -13.3021   C.3       1 RES1   0.0000
    26 H26     -0.7244 -12.2089 -12.4404   H         1 RES1   0.0000
    27 H27     -0.6490 -12.0404 -14.2092   H         1 RES1   0.0000
    28 C28     -3.2436 -11.2164 -14.5223   C.3       1 RES1   0.0000
    29 H29     -2.8201 -11.5701 -15.4612   H         1 RES1   0.0000
    30 H30     -4.3156 -11.4081 -14.5126   H         1 RES1   0.0000
    31 C31     -3.0030  -9.7195 -14.3986   C.3       1 RES1   0.0000
    32 H32     -3.4186  -9.2186 -15.2717   H         1 RES1   0.0000
    33 H33     -3.4970  -9.3524 -13.5001   H         1 RES1   0.0000
    34 C34     -0.8930 -10.1936 -13.1497   C.3       1 RES1   0.0000
    35 H35     -1.3386  -9.8550 -12.2155   H         1 RES1   0.0000
    36 H36      0.1800 -10.0088 -13.1281   H         1 RES1   0.0000
    37 N37     -2.6048 -11.9493 -13.3899   N.4       1 RES1   1.0000
    38 H38     -3.0420 -11.6553 -12.5223   H         1 RES1   0.0000
    39 H39     -2.7503 -12.9451 -13.5216   H         1 RES1   0.0000
    40 N40     -3.9081  -4.5953 -14.7781   N.ar      1 RES1   0.0000
    41 C41     -3.1167  -2.4156 -13.3874   C.ar      1 RES1   0.0000
    42 H42     -2.7950  -1.5467 -12.8228   H         1 RES1   0.0000
    43 N43     -5.8603  -3.4859 -15.2430   N.pl3     1 RES1   0.0000
    44 H44     -6.4649  -2.6776 -15.0966   H         1 RES1   0.0000
    45 C45     -2.2567  -3.4919 -13.4728   C.ar      1 RES1   0.0000
    46 H46     -1.2805  -3.4778 -12.9994   H         1 RES1   0.0000
    47 C47     -4.6594  -3.4907 -14.6426   C.ar      1 RES1   0.0000
    48 N48     -4.3254  -2.3837 -13.9635   N.ar      1 RES1   0.0000
    49 C49     -6.3816  -4.5944 -16.0423   C.3       1 RES1   0.0000
    50 H50     -6.4558  -5.4867 -15.4015   H         1 RES1   0.0000
    51 C51     -5.4918  -4.9224 -17.2253   C.ar      1 RES1   0.0000
    52 C52     -7.7823  -4.2117 -16.5057   C.3       1 RES1   0.0000
    53 H53     -8.2326  -5.0181 -17.0808   H         1 RES1   0.0000
    54 H54     -8.4276  -4.0006 -15.6555   H         1 RES1   0.0000
    55 H55     -7.7499  -3.3246 -17.1347   H         1 RES1   0.0000
    56 C56     -3.8525  -5.5101 -19.3995   C.ar      1 RES1   0.0000
    57 H57     -3.2135  -5.7393 -20.2458   H         1 RES1   0.0000
    58 C58     -4.7353  -3.9306 -17.8328   C.ar      1 RES1   0.0000
    59 H59     -4.7833  -2.9140 -17.4567   H         1 RES1   0.0000
    60 C60     -5.4150  -6.2142 -17.7274   C.ar      1 RES1   0.0000
    61 H61     -5.9988  -7.0060 -17.2699   H         1 RES1   0.0000
    62 C62     -4.5994  -6.5049 -18.8080   C.ar      1 RES1   0.0000
    63 H63     -4.5489  -7.5194 -19.1893   H         1 RES1   0.0000
    64 C64     -3.9198  -4.2233 -18.9126   C.ar      1 RES1   0.0000
    65 H65     -3.3327  -3.4374 -19.3760   H         1 RES1   0.0000
@<TRIPOS>BOND
     1     1     5   ar
     2     1     6   ar
     3     1     2    1
     4     3     8   ar
     5     3     9   ar
     6     3     4    1
     7     5     9   ar
     8     5    11    1
     9     6     8   ar
    10     6     7    1
    11     8    12    1
    12     9    10    1
    13    11    20    2
    14    11    23    1
    15    13    14    1
    16    13    23   am
    17    13    24    1
    18    14    31    1
    19    14    34    1
    20    14    15    1
    21    16    24    1
    22    16    17    1
    23    16    18    1
    24    16    19    1
    25    20    21    1
    26    20    24    1
    27    21    40   ar
    28    21    45   ar
    29    22    23    2
    30    25    34    1
    31    25    37    1
    32    25    26    1
    33    25    27    1
    34    28    31    1
    35    28    37    1
    36    28    29    1
    37    28    30    1
    38    31    32    1
    39    31    33    1
    40    34    35    1
    41    34    36    1
    42    37    38    1
    43    37    39    1
    44    40    47   ar
    45    41    45   ar
    46    41    48   ar
    47    41    42    1
    48    43    47    1
    49    43    49    1
    50    43    44    1
    51    45    46    1
    52    47    48   ar
    53    49    51    1
    54    49    52    1
    55    49    50    1
    56    51    58   ar
    57    51    60   ar
    58    52    53    1
    59    52    54    1
    60    52    55    1
    61    56    62   ar
    62    56    64   ar
    63    56    57    1
    64    58    64   ar
    65    58    59    1
    66    60    62   ar
    67    60    61    1
    68    62    63    1
    69    64    65    1
@<TRIPOS>SUBSTRUCTURE
     1 RES1        1 GROUP             0 ****  ****    0  
@<TRIPOS>MOLECULE
LIGAND_00398
    65    69     1     0     0
SMALL
USER_CHARGES
****
Generated from the CSD

@<TRIPOS>ATOM
     1 C1       0.2180  -4.9525 -17.1662   C.ar      1 RES1   0.0000
     2 H2      -0.1199  -5.8363 -17.6966   H         1 RES1   0.0000
     3 C3       1.0569  -2.6749 -15.8469   C.ar      1 RES1   0.0000
     4 H4       1.3826  -1.7741 -15.3373   H         1 RES1   0.0000
     5 C5       0.0024  -4.8532 -15.7949   C.ar      1 RES1   0.0000
     6 C6       0.8504  -3.9432 -17.8704   C.ar      1 RES1   0.0000
     7 H7       1.0226  -4.0339 -18.9377   H         1 RES1   0.0000
     8 C8       1.2513  -2.8280 -17.1901   C.ar      1 RES1   0.0000
     9 C9       0.4359  -3.6968 -15.1525   C.ar      1 RES1   0.0000
    10 H10      0.2899  -3.5902 -14.0837   H         1 RES1   0.0000
    11 C11     -0.6846  -5.9366 -15.0193   C.2       1 RES1   0.0000
    12 F12      1.8691  -1.8290 -17.8772   F         1 RES1   0.0000
    13 N13     -1.2041  -7.9239 -14.1045   N.am      1 RES1   0.0000
    14 C14     -1.4670  -9.4013 -14.1741   C.3       1 RES1   0.0000
    15 H15     -1.0536  -9.7743 -15.1099   H         1 RES1   0.0000
    16 C16     -2.8906  -7.1482 -12.5570   C.3       1 RES1   0.0000
    17 H17     -3.9691  -7.2642 -12.6412   H         1 RES1   0.0000
    18 H18     -2.4982  -8.0101 -12.0213   H         1 RES1   0.0000
    19 H19     -2.6901  -6.2592 -11.9627   H         1 RES1   0.0000
    20 C20     -1.8662  -5.8070 -14.3768   C.2       1 RES1   0.0000
    21 C21     -2.6990  -4.5904 -14.1952   C.ar      1 RES1   0.0000
    22 O22      0.7180  -7.8809 -15.3630   O.2       1 RES1   0.0000
    23 C23     -0.2431  -7.2968 -14.8797   C.2       1 RES1   0.0000
    24 N24     -2.2763  -7.0347 -13.8803   N.3       1 RES1   0.0000
    25 C25     -1.0026 -11.6252 -13.0945   C.3       1 RES1   0.0000
    26 H26     -0.5308 -12.1066 -12.2392   H         1 RES1   0.0000
    27 H27     -0.5716 -12.0165 -14.0148   H         1 RES1   0.0000
    28 C28     -3.1901 -11.2287 -14.1945   C.3       1 RES1   0.0000
    29 H29     -2.8242 -11.6203 -15.1425   H         1 RES1   0.0000
    30 H30     -4.2570 -11.4286 -14.1067   H         1 RES1   0.0000
    31 C31     -2.9586  -9.7258 -14.1526   C.3       1 RES1   0.0000
    32 H32     -3.4353  -9.2677 -15.0180   H         1 RES1   0.0000
    33 H33     -3.3976  -9.3231 -13.2409   H         1 RES1   0.0000
    34 C34     -0.7672 -10.1264 -13.0239   C.3       1 RES1   0.0000
    35 H35     -1.1553  -9.7501 -12.0785   H         1 RES1   0.0000
    36 H36      0.3028  -9.9320 -13.0802   H         1 RES1   0.0000
    37 N37     -2.4713 -11.9051 -13.0749   N.4       1 RES1   1.0000
    38 H38     -2.8548 -11.5763 -12.1945   H         1 RES1   0.0000
    39 H39     -2.6140 -12.9069 -13.1530   H         1 RES1   0.0000
    40 N40     -3.9081  -4.5953 -14.7781   N.ar      1 RES1   0.0000
    41 C41     -3.1167  -2.4156 -13.3874   C.ar      1 RES1   0.0000
    42 H42     -2.7950  -1.5467 -12.8228   H         1 RES1   0.0000
    43 N43     -5.8603  -3.4859 -15.2430   N.pl3     1 RES1   0.0000
    44 H44     -6.4650  -2.6777 -15.0964   H         1 RES1   0.0000
    45 C45     -2.2567  -3.4919 -13.4728   C.ar      1 RES1   0.0000
    46 H46     -1.2805  -3.4778 -12.9994   H         1 RES1   0.0000
    47 C47     -4.6594  -3.4907 -14.6426   C.ar      1 RES1   0.0000
    48 N48     -4.3254  -2.3837 -13.9635   N.ar      1 RES1   0.0000
    49 C49     -6.3815  -4.5943 -16.0426   C.3       1 RES1   0.0000
    50 H50     -6.4557  -5.4867 -15.4019   H         1 RES1   0.0000
    51 C51     -5.4916  -4.9221 -17.2254   C.ar      1 RES1   0.0000
    52 C52     -7.7822  -4.2116 -16.5060   C.3       1 RES1   0.0000
    53 H53     -8.2324  -5.0179 -17.0813   H         1 RES1   0.0000
    54 H54     -8.4275  -4.0006 -15.6559   H         1 RES1   0.0000
    55 H55     -7.7497  -3.3244 -17.1349   H         1 RES1   0.0000
    56 C56     -3.8519  -5.5094 -19.3996   C.ar      1 RES1   0.0000
    57 H57     -3.2128  -5.7385 -20.2459   H         1 RES1   0.0000
    58 C58     -4.7349  -3.9302 -17.8326   C.ar      1 RES1   0.0000
    59 H59     -4.7828  -2.9137 -17.4563   H         1 RES1   0.0000
    60 C60     -5.4148  -6.2138 -17.7279   C.ar      1 RES1   0.0000
    61 H61     -5.9987  -7.0057 -17.2706   H         1 RES1   0.0000
    62 C62     -4.5991  -6.5043 -18.8084   C.ar      1 RES1   0.0000
    63 H63     -4.5486  -7.5187 -19.1900   H         1 RES1   0.0000
    64 C64     -3.9192  -4.2227 -18.9124   C.ar      1 RES1   0.0000
    65 H65     -3.3320  -3.4367 -19.3755   H         1 RES1   0.0000
@<TRIPOS>BOND
     1     1     5   ar
     2     1     6   ar
     3     1     2    1
     4     3     8   ar
     5     3     9   ar
     6     3     4    1
     7     5     9   ar
     8     5    11    1
     9     6     8   ar
    10     6     7    1
    11     8    12    1
    12     9    10    1
    13    11    20    2
    14    11    23    1
    15    13    14    1
    16    13    23   am
    17    13    24    1
    18    14    31    1
    19    14    34    1
    20    14    15    1
    21    16    24    1
    22    16    17    1
    23    16    18    1
    24    16    19    1
    25    20    21    1
    26    20    24    1
    27    21    40   ar
    28    21    45   ar
    29    22    23    2
    30    25    34    1
    31    25    37    1
    32    25    26    1
    33    25    27    1
    34    28    31    1
    35    28    37    1
    36    28    29    1
    37    28    30    1
    38    31    32    1
    39    31    33    1
    40    34    35    1
    41    34    36    1
    42    37    38    1
    43    37    39    1
    44    40    47   ar
    45    41    45   ar
    46    41    48   ar
    47    41    42    1
    48    43    47    1
    49    43    49    1
    50    43    44    1
    51    45    46    1
    52    47    48   ar
    53    49    51    1
    54    49    52    1
    55    49    50    1
    56    51    58   ar
    57    51    60   ar
    58    52    53    1
    59    52    54    1
    60    52    55    1
    61    56    62   ar
    62    56    64   ar
    63    56    57    1
    64    58    64   ar
    65    58    59    1
    66    60    62   ar
    67    60    61    1
    68    62    63    1
    69    64    65    1
@<TRIPOS>SUBSTRUCTURE
     1 RES1        1 GROUP             0 ****  ****    0  
@<TRIPOS>MOLECULE
LIGAND_00399
    65    69     1     0     0
SMALL
USER_CHARGES
****
Generated from the CSD

@<TRIPOS>ATOM
     1 C1       0.5300  -4.8578 -16.9001   C.ar      1 RES1   0.0000
     2 H2       0.2856  -5.7321 -17.4938   H         1 RES1   0.0000
     3 C3       1.1348  -2.6039 -15.4216   C.ar      1 RES1   0.0000
     4 H4       1.3695  -1.7123 -14.8497   H         1 RES1   0.0000
     5 C5       0.1285  -4.8006 -15.5688   C.ar      1 RES1   0.0000
     6 C6       1.2308  -3.8185 -17.4859   C.ar      1 RES1   0.0000
     7 H7       1.5479  -3.8764 -18.5218   H         1 RES1   0.0000
     8 C8       1.5125  -2.7161 -16.7293   C.ar      1 RES1   0.0000
     9 C9       0.4467  -3.6554 -14.8443   C.ar      1 RES1   0.0000
    10 H10      0.1550  -3.5813 -13.8029   H         1 RES1   0.0000
    11 C11     -0.6345  -5.9169 -14.9216   C.2       1 RES1   0.0000
    12 F12      2.1968  -1.6877 -17.3004   F         1 RES1   0.0000
    13 N13     -1.2523  -7.9463 -14.1756   N.am      1 RES1   0.0000
    14 C14     -1.5234  -9.4127 -14.3559   C.3       1 RES1   0.0000
    15 H15     -1.0056  -9.7440 -15.2548   H         1 RES1   0.0000
    16 C16     -3.0589  -7.2367 -12.7357   C.3       1 RES1   0.0000
    17 H17     -4.1332  -7.2162 -12.9064   H         1 RES1   0.0000
    18 H18     -2.8071  -8.1909 -12.2773   H         1 RES1   0.0000
    19 H19     -2.8119  -6.4458 -12.0306   H         1 RES1   0.0000
    20 C20     -1.8662  -5.8070 -14.3768   C.2       1 RES1   0.0000
    21 C21     -2.6990  -4.5904 -14.1952   C.ar      1 RES1   0.0000
    22 O22      0.7724  -7.8592 -15.2588   O.2       1 RES1   0.0000
    23 C23     -0.2210  -7.2897 -14.8261   C.2       1 RES1   0.0000
    24 N24     -2.3307  -7.0553 -13.9919   N.3       1 RES1   0.0000
    25 C25     -1.2195 -11.6984 -13.3510   C.3       1 RES1   0.0000
    26 H26     -0.8595 -12.2328 -12.4730   H         1 RES1   0.0000
    27 H27     -0.6863 -12.0492 -14.2333   H         1 RES1   0.0000
    28 C28     -3.2543 -11.2037 -14.6802   C.3       1 RES1   0.0000
    29 H29     -2.7824 -11.5521 -15.5977   H         1 RES1   0.0000
    30 H30     -4.3265 -11.3877 -14.7309   H         1 RES1   0.0000
    31 C31     -3.0108  -9.7097 -14.5296   C.3       1 RES1   0.0000
    32 H32     -3.3746  -9.1980 -15.4195   H         1 RES1   0.0000
    33 H33     -3.5507  -9.3470 -13.6562   H         1 RES1   0.0000
    34 C34     -0.9755 -10.2101 -13.1717   C.3       1 RES1   0.0000
    35 H35     -1.4693  -9.8766 -12.2602   H         1 RES1   0.0000
    36 H36      0.0959 -10.0333 -13.0898   H         1 RES1   0.0000
    37 N37     -2.6833 -11.9512 -13.5214   N.4       1 RES1   1.0000
    38 H38     -3.1654 -11.6617 -12.6763   H         1 RES1   0.0000
    39 H39     -2.8282 -12.9447 -13.6701   H         1 RES1   0.0000
    40 N40     -3.0141  -4.2587 -12.9334   N.ar      1 RES1   0.0000
    41 C41     -3.9252  -2.7327 -14.9712   C.ar      1 RES1   0.0000
    42 H42     -4.2824  -2.1216 -15.7936   H         1 RES1   0.0000
    43 N43     -4.1219  -2.8547 -11.4981   N.pl3     1 RES1   0.0000
    44 H44     -3.8251  -3.4817 -10.7504   H         1 RES1   0.0000
    45 C45     -3.1463  -3.8330 -15.2679   C.ar      1 RES1   0.0000
    46 H46     -2.8983  -4.0940 -16.2914   H         1 RES1   0.0000
    47 C47     -3.7882  -3.1755 -12.7584   C.ar      1 RES1   0.0000
    48 N48     -4.2655  -2.3783 -13.7253   N.ar      1 RES1   0.0000
    49 C49     -4.9381  -1.6961 -11.1360   C.3       1 RES1   0.0000
    50 H50     -5.9256  -1.7980 -11.6120   H         1 RES1   0.0000
    51 C51     -4.3176  -0.3884 -11.5869   C.ar      1 RES1   0.0000
    52 C52     -5.1240  -1.7162  -9.6233   C.3       1 RES1   0.0000
    53 H53     -5.7540  -0.8899  -9.3006   H         1 RES1   0.0000
    54 H54     -5.5922  -2.6445  -9.3026   H         1 RES1   0.0000
    55 H55     -4.1649  -1.6281  -9.1172   H         1 RES1   0.0000
    56 C56     -3.1632   2.0082 -12.4140   C.ar      1 RES1   0.0000
    57 H57     -2.7138   2.9414 -12.7369   H         1 RES1   0.0000
    58 C58     -2.9393  -0.2588 -11.6795   C.ar      1 RES1   0.0000
    59 H59     -2.3037  -1.1008 -11.4263   H         1 RES1   0.0000
    60 C60     -5.1084   0.7047 -11.9136   C.ar      1 RES1   0.0000
    61 H61     -6.1885   0.6277 -11.8471   H         1 RES1   0.0000
    62 C62     -4.5332   1.8952 -12.3249   C.ar      1 RES1   0.0000
    63 H63     -5.1638   2.7410 -12.5777   H         1 RES1   0.0000
    64 C64     -2.3659   0.9321 -12.0917   C.ar      1 RES1   0.0000
    65 H65     -1.2866   1.0176 -12.1609   H         1 RES1   0.0000
@<TRIPOS>BOND
     1     1     5   ar
     2     1     6   ar
     3     1     2    1
     4     3     8   ar
     5     3     9   ar
     6     3     4    1
     7     5     9   ar
     8     5    11    1
     9     6     8   ar
    10     6     7    1
    11     8    12    1
    12     9    10    1
    13    11    20    2
    14    11    23    1
    15    13    14    1
    16    13    23   am
    17    13    24    1
    18    14    31    1
    19    14    34    1
    20    14    15    1
    21    16    24    1
    22    16    17    1
    23    16    18    1
    24    16    19    1
    25    20    21    1
    26    20    24    1
    27    21    40   ar
    28    21    45   ar
    29    22    23    2
    30    25    34    1
    31    25    37    1
    32    25    26    1
    33    25    27    1
    34    28    31    1
    35    28    37    1
    36    28    29    1
    37    28    30    1
    38    31    32    1
    39    31    33    1
    40    34    35    1
    41    34    36    1
    42    37    38    1
    43    37    39    1
    44    40    47   ar
    45    41    45   ar
    46    41    48   ar
    47    41    42    1
    48    43    47    1
    49    43    49    1
    50    43    44    1
    51    45    46    1
    52    47    48   ar
    53    49    51    1
    54    49    52    1
    55    49    50    1
    56    51    58   ar
    57    51    60   ar
    58    52    53    1
    59    52    54    1
    60    52    55    1
    61    56    62   ar
    62    56    64   ar
    63    56    57    1
    64    58    64   ar
    65    58    59    1
    66    60    62   ar
    67    60    61    1
    68    62    63    1
    69    64    65    1
@<TRIPOS>SUBSTRUCTURE
     1 RES1        1 GROUP             0 ****  ****    0  
@<TRIPOS>MOLECULE
LIGAND_00400
    65    69     1     0     0
SMALL
USER_CHARGES
****
Generated from the CSD

@<TRIPOS>ATOM
     1 C1      -0.2533  -4.1197 -16.6312   C.ar      1 RES1   0.0000
     2 H2      -1.1797  -4.4176 -17.1103   H         1 RES1   0.0000
     3 C3       2.0918  -3.3166 -15.4115   C.ar      1 RES1   0.0000
     4 H4       3.0098  -2.9904 -14.9341   H         1 RES1   0.0000
     5 C5       0.1690  -4.7855 -15.4844   C.ar      1 RES1   0.0000
     6 C6       0.4820  -3.0795 -17.1716   C.ar      1 RES1   0.0000
     7 H7       0.1496  -2.5729 -18.0715   H         1 RES1   0.0000
     8 C8       1.6361  -2.7039 -16.5438   C.ar      1 RES1   0.0000
     9 C9       1.3547  -4.3637 -14.8893   C.ar      1 RES1   0.0000
    10 H10      1.7158  -4.8652 -13.9988   H         1 RES1   0.0000
    11 C11     -0.6186  -5.9114 -14.8853   C.2       1 RES1   0.0000
    12 F12      2.3615  -1.6780 -17.0666   F         1 RES1   0.0000
    13 N13     -1.2681  -7.9531 -14.2024   N.am      1 RES1   0.0000
    14 C14     -1.5398  -9.4140 -14.4224   C.3       1 RES1   0.0000
    15 H15     -1.0006  -9.7272 -15.3153   H         1 RES1   0.0000
    16 C16     -3.1157  -7.2653 -12.8045   C.3       1 RES1   0.0000
    17 H17     -4.1839  -7.2514 -13.0106   H         1 RES1   0.0000
    18 H18     -2.8709  -8.2235 -12.3507   H         1 RES1   0.0000
    19 H19     -2.8991  -6.4820 -12.0812   H         1 RES1   0.0000
    20 C20     -1.8662  -5.8070 -14.3768   C.2       1 RES1   0.0000
    21 C21     -2.6990  -4.5904 -14.1952   C.ar      1 RES1   0.0000
    22 O22      0.7897  -7.8531 -15.2200   O.2       1 RES1   0.0000
    23 C23     -0.2142  -7.2880 -14.8063   C.2       1 RES1   0.0000
    24 N24     -2.3478  -7.0608 -14.0333   N.3       1 RES1   0.0000
    25 C25     -1.2694 -11.7229 -13.4618   C.3       1 RES1   0.0000
    26 H26     -0.9336 -12.2782 -12.5873   H         1 RES1   0.0000
    27 H27     -0.7154 -12.0560 -14.3381   H         1 RES1   0.0000
    28 C28     -3.2683 -11.1902 -14.8302   C.3       1 RES1   0.0000
    29 H29     -2.7747 -11.5198 -15.7432   H         1 RES1   0.0000
    30 H30     -4.3395 -11.3686 -14.9119   H         1 RES1   0.0000
    31 C31     -3.0234  -9.7009 -14.6400   C.3       1 RES1   0.0000
    32 H32     -3.3628  -9.1680 -15.5270   H         1 RES1   0.0000
    33 H33     -3.5838  -9.3557 -13.7725   H         1 RES1   0.0000
    34 C34     -1.0248 -10.2400 -13.2431   C.3       1 RES1   0.0000
    35 H35     -1.5401  -9.9249 -12.3369   H         1 RES1   0.0000
    36 H36      0.0449 -10.0694 -13.1303   H         1 RES1   0.0000
    37 N37     -2.7294 -11.9657 -13.6745   N.4       1 RES1   1.0000
    38 H38     -3.2315 -11.6933 -12.8356   H         1 RES1   0.0000
    39 H39     -2.8740 -12.9551 -13.8491   H         1 RES1   0.0000
    40 N40     -3.0141  -4.2587 -12.9334   N.ar      1 RES1   0.0000
    41 C41     -3.9252  -2.7327 -14.9712   C.ar      1 RES1   0.0000
    42 H42     -4.2824  -2.1216 -15.7936   H         1 RES1   0.0000
    43 N43     -4.1219  -2.8547 -11.4981   N.pl3     1 RES1   0.0000
    44 H44     -3.8251  -3.4817 -10.7504   H         1 RES1   0.0000
    45 C45     -3.1463  -3.8330 -15.2679   C.ar      1 RES1   0.0000
    46 H46     -2.8983  -4.0940 -16.2914   H         1 RES1   0.0000
    47 C47     -3.7882  -3.1755 -12.7584   C.ar      1 RES1   0.0000
    48 N48     -4.2655  -2.3783 -13.7253   N.ar      1 RES1   0.0000
    49 C49     -4.9381  -1.6961 -11.1360   C.3       1 RES1   0.0000
    50 H50     -5.9256  -1.7980 -11.6120   H         1 RES1   0.0000
    51 C51     -4.3175  -0.3884 -11.5869   C.ar      1 RES1   0.0000
    52 C52     -5.1240  -1.7162  -9.6233   C.3       1 RES1   0.0000
    53 H53     -5.7540  -0.8899  -9.3006   H         1 RES1   0.0000
    54 H54     -5.5922  -2.6445  -9.3026   H         1 RES1   0.0000
    55 H55     -4.1649  -1.6282  -9.1171   H         1 RES1   0.0000
    56 C56     -3.1631   2.0082 -12.4140   C.ar      1 RES1   0.0000
    57 H57     -2.7137   2.9414 -12.7368   H         1 RES1   0.0000
    58 C58     -2.9392  -0.2588 -11.6795   C.ar      1 RES1   0.0000
    59 H59     -2.3036  -1.1009 -11.4262   H         1 RES1   0.0000
    60 C60     -5.1083   0.7047 -11.9136   C.ar      1 RES1   0.0000
    61 H61     -6.1885   0.6277 -11.8471   H         1 RES1   0.0000
    62 C62     -4.5331   1.8952 -12.3249   C.ar      1 RES1   0.0000
    63 H63     -5.1637   2.7410 -12.5776   H         1 RES1   0.0000
    64 C64     -2.3659   0.9321 -12.0916   C.ar      1 RES1   0.0000
    65 H65     -1.2866   1.0176 -12.1608   H         1 RES1   0.0000
@<TRIPOS>BOND
     1     1     5   ar
     2     1     6   ar
     3     1     2    1
     4     3     8   ar
     5     3     9   ar
     6     3     4    1
     7     5     9   ar
     8     5    11    1
     9     6     8   ar
    10     6     7    1
    11     8    12    1
    12     9    10    1
    13    11    20    2
    14    11    23    1
    15    13    14    1
    16    13    23   am
    17    13    24    1
    18    14    31    1
    19    14    34    1
    20    14    15    1
    21    16    24    1
    22    16    17    1
    23    16    18    1
    24    16    19    1
    25    20    21    1
    26    20    24    1
    27    21    40   ar
    28    21    45   ar
    29    22    23    2
    30    25    34    1
    31    25    37    1
    32    25    26    1
    33    25    27    1
    34    28    31    1
    35    28    37    1
    36    28    29    1
    37    28    30    1
    38    31    32    1
    39    31    33    1
    40    34    35    1
    41    34    36    1
    42    37    38    1
    43    37    39    1
    44    40    47   ar
    45    41    45   ar
    46    41    48   ar
    47    41    42    1
    48    43    47    1
    49    43    49    1
    50    43    44    1
    51    45    46    1
    52    47    48   ar
    53    49    51    1
    54    49    52    1
    55    49    50    1
    56    51    58   ar
    57    51    60   ar
    58    52    53    1
    59    52    54    1
    60    52    55    1
    61    56    62   ar
    62    56    64   ar
    63    56    57    1
    64    58    64   ar
    65    58    59    1
    66    60    62   ar
    67    60    61    1
    68    62    63    1
    69    64    65    1
@<TRIPOS>SUBSTRUCTURE
     1 RES1        1 GROUP             0 ****  ****    0  
@<TRIPOS>MOLECULE
LIGAND_00401
    65    69     1     0     0
SMALL
USER_CHARGES
****
Generated from the CSD

@<TRIPOS>ATOM
     1 C1      -0.4201  -4.1486 -16.7354   C.ar      1 RES1   0.0000
     2 H2      -1.3920  -4.4351 -17.1223   H         1 RES1   0.0000
     3 C3       2.0415  -3.3742 -15.7492   C.ar      1 RES1   0.0000
     4 H4       3.0054  -3.0593 -15.3633   H         1 RES1   0.0000
     5 C5       0.0983  -4.8126 -15.6276   C.ar      1 RES1   0.0000
     6 C6       0.2766  -3.1244 -17.3518   C.ar      1 RES1   0.0000
     7 H7      -0.1314  -2.6191 -18.2208   H         1 RES1   0.0000
     8 C8       1.4904  -2.7626 -16.8389   C.ar      1 RES1   0.0000
     9 C9       1.3411  -4.4054 -15.1506   C.ar      1 RES1   0.0000
    10 H10      1.7769  -4.9061 -14.2936   H         1 RES1   0.0000
    11 C11     -0.6465  -5.9213 -14.9469   C.2       1 RES1   0.0000
    12 F12      2.1788  -1.7524 -17.4368   F         1 RES1   0.0000
    13 N13     -1.2406  -7.9410 -14.1570   N.am      1 RES1   0.0000
    14 C14     -1.5106  -9.4109 -14.3092   C.3       1 RES1   0.0000
    15 H15     -1.0400  -9.7471 -15.2320   H         1 RES1   0.0000
    16 C16     -3.0175  -7.2154 -12.6884   C.3       1 RES1   0.0000
    17 H17     -4.0862  -7.3420 -12.8488   H         1 RES1   0.0000
    18 H18     -2.6493  -8.0897 -12.1555   H         1 RES1   0.0000
    19 H19     -2.8702  -6.3442 -12.0537   H         1 RES1   0.0000
    20 C20     -1.8662  -5.8070 -14.3768   C.2       1 RES1   0.0000
    21 C21     -2.6990  -4.5904 -14.1952   C.ar      1 RES1   0.0000
    22 O22      0.7594  -7.8641 -15.2858   O.2       1 RES1   0.0000
    23 C23     -0.2262  -7.2912 -14.8399   C.2       1 RES1   0.0000
    24 N24     -2.3177  -7.0507 -13.9630   N.3       1 RES1   0.0000
    25 C25     -1.1359 -11.6851 -13.3019   C.3       1 RES1   0.0000
    26 H26     -0.7248 -12.2088 -12.4402   H         1 RES1   0.0000
    27 H27     -0.6490 -12.0404 -14.2089   H         1 RES1   0.0000
    28 C28     -3.2436 -11.2164 -14.5226   C.3       1 RES1   0.0000
    29 H29     -2.8199 -11.5701 -15.4614   H         1 RES1   0.0000
    30 H30     -4.3156 -11.4081 -14.5132   H         1 RES1   0.0000
    31 C31     -3.0030  -9.7194 -14.3989   C.3       1 RES1   0.0000
    32 H32     -3.4184  -9.2186 -15.2721   H         1 RES1   0.0000
    33 H33     -3.4972  -9.3523 -13.5006   H         1 RES1   0.0000
    34 C34     -0.8933 -10.1936 -13.1495   C.3       1 RES1   0.0000
    35 H35     -1.3391  -9.8549 -12.2155   H         1 RES1   0.0000
    36 H36      0.1797 -10.0088 -13.1277   H         1 RES1   0.0000
    37 N37     -2.6050 -11.9492 -13.3900   N.4       1 RES1   1.0000
    38 H38     -3.0424 -11.6552 -12.5226   H         1 RES1   0.0000
    39 H39     -2.7506 -12.9451 -13.5217   H         1 RES1   0.0000
    40 N40     -3.9081  -4.5953 -14.7781   N.ar      1 RES1   0.0000
    41 C41     -3.1167  -2.4156 -13.3874   C.ar      1 RES1   0.0000
    42 H42     -2.7950  -1.5467 -12.8228   H         1 RES1   0.0000
    43 N43     -5.8603  -3.4859 -15.2430   N.pl3     1 RES1   0.0000
    44 H44     -6.1105  -4.2899 -15.8186   H         1 RES1   0.0000
    45 C45     -2.2567  -3.4919 -13.4728   C.ar      1 RES1   0.0000
    46 H46     -1.2805  -3.4778 -12.9994   H         1 RES1   0.0000
    47 C47     -4.6594  -3.4907 -14.6426   C.ar      1 RES1   0.0000
    48 N48     -4.3254  -2.3837 -13.9635   N.ar      1 RES1   0.0000
    49 C49     -6.8064  -2.3724 -15.1745   C.3       1 RES1   0.0000
    50 H50     -6.3322  -1.4797 -15.6110   H         1 RES1   0.0000
    51 C51     -7.2201  -2.0522 -13.7516   C.ar      1 RES1   0.0000
    52 C52     -8.0178  -2.7422 -16.0224   C.3       1 RES1   0.0000
    53 H53     -8.7435  -1.9316 -16.0335   H         1 RES1   0.0000
    54 H54     -7.7238  -2.9477 -17.0496   H         1 RES1   0.0000
    55 H55     -8.5075  -3.6294 -15.6264   H         1 RES1   0.0000
    56 C56     -7.9782  -1.4787 -11.1331   C.ar      1 RES1   0.0000
    57 H57     -8.2728  -1.2550 -10.1131   H         1 RES1   0.0000
    58 C58     -7.2598  -3.0506 -12.7889   C.ar      1 RES1   0.0000
    59 H59     -6.9928  -4.0668 -13.0596   H         1 RES1   0.0000
    60 C60     -7.5693  -0.7610 -13.3805   C.ar      1 RES1   0.0000
    61 H61     -7.5476   0.0360 -14.1164   H         1 RES1   0.0000
    62 C62     -7.9456  -0.4773 -12.0785   C.ar      1 RES1   0.0000
    63 H63     -8.2153   0.5367 -11.8027   H         1 RES1   0.0000
    64 C64     -7.6356  -2.7650 -11.4874   C.ar      1 RES1   0.0000
    65 H65     -7.6600  -3.5560 -10.7453   H         1 RES1   0.0000
@<TRIPOS>BOND
     1     1     5   ar
     2     1     6   ar
     3     1     2    1
     4     3     8   ar
     5     3     9   ar
     6     3     4    1
     7     5     9   ar
     8     5    11    1
     9     6     8   ar
    10     6     7    1
    11     8    12    1
    12     9    10    1
    13    11    20    2
    14    11    23    1
    15    13    14    1
    16    13    23   am
    17    13    24    1
    18    14    31    1
    19    14    34    1
    20    14    15    1
    21    16    24    1
    22    16    17    1
    23    16    18    1
    24    16    19    1
    25    20    21    1
    26    20    24    1
    27    21    40   ar
    28    21    45   ar
    29    22    23    2
    30    25    34    1
    31    25    37    1
    32    25    26    1
    33    25    27    1
    34    28    31    1
    35    28    37    1
    36    28    29    1
    37    28    30    1
    38    31    32    1
    39    31    33    1
    40    34    35    1
    41    34    36    1
    42    37    38    1
    43    37    39    1
    44    40    47   ar
    45    41    45   ar
    46    41    48   ar
    47    41    42    1
    48    43    47    1
    49    43    49    1
    50    43    44    1
    51    45    46    1
    52    47    48   ar
    53    49    51    1
    54    49    52    1
    55    49    50    1
    56    51    58   ar
    57    51    60   ar
    58    52    53    1
    59    52    54    1
    60    52    55    1
    61    56    62   ar
    62    56    64   ar
    63    56    57    1
    64    58    64   ar
    65    58    59    1
    66    60    62   ar
    67    60    61    1
    68    62    63    1
    69    64    65    1
@<TRIPOS>SUBSTRUCTURE
     1 RES1        1 GROUP             0 ****  ****    0  
@<TRIPOS>MOLECULE
LIGAND_00402
    65    69     1     0     0
SMALL
USER_CHARGES
****
Generated from the CSD

@<TRIPOS>ATOM
     1 C1       0.2181  -4.9521 -17.1659   C.ar      1 RES1   0.0000
     2 H2      -0.1199  -5.8357 -17.6965   H         1 RES1   0.0000
     3 C3       1.0575  -2.6750 -15.8462   C.ar      1 RES1   0.0000
     4 H4       1.3834  -1.7743 -15.3364   H         1 RES1   0.0000
     5 C5       0.0026  -4.8531 -15.7946   C.ar      1 RES1   0.0000
     6 C6       0.8507  -3.9428 -17.8699   C.ar      1 RES1   0.0000
     7 H7       1.0228  -4.0333 -18.9372   H         1 RES1   0.0000
     8 C8       1.2518  -2.8278 -17.1893   C.ar      1 RES1   0.0000
     9 C9       0.4363  -3.6969 -15.1519   C.ar      1 RES1   0.0000
    10 H10      0.2904  -3.5906 -14.0830   H         1 RES1   0.0000
    11 C11     -0.6845  -5.9365 -15.0192   C.2       1 RES1   0.0000
    12 F12      1.8697  -1.8287 -17.8763   F         1 RES1   0.0000
    13 N13     -1.2042  -7.9239 -14.1046   N.am      1 RES1   0.0000
    14 C14     -1.4671  -9.4013 -14.1744   C.3       1 RES1   0.0000
    15 H15     -1.0536  -9.7742 -15.1102   H         1 RES1   0.0000
    16 C16     -2.8909  -7.1483 -12.5572   C.3       1 RES1   0.0000
    17 H17     -3.9667  -7.2868 -12.6423   H         1 RES1   0.0000
    18 H18     -2.4823  -7.9973 -12.0130   H         1 RES1   0.0000
    19 H19     -2.7094  -6.2501 -11.9709   H         1 RES1   0.0000
    20 C20     -1.8662  -5.8070 -14.3768   C.2       1 RES1   0.0000
    21 C21     -2.6990  -4.5904 -14.1952   C.ar      1 RES1   0.0000
    22 O22      0.7181  -7.8809 -15.3628   O.2       1 RES1   0.0000
    23 C23     -0.2430  -7.2968 -14.8796   C.2       1 RES1   0.0000
    24 N24     -2.2764  -7.0348 -13.8804   N.3       1 RES1   0.0000
    25 C25     -1.0029 -11.6253 -13.0950   C.3       1 RES1   0.0000
    26 H26     -0.5311 -12.1069 -12.2397   H         1 RES1   0.0000
    27 H27     -0.5718 -12.0166 -14.0153   H         1 RES1   0.0000
    28 C28     -3.1902 -11.2287 -14.1952   C.3       1 RES1   0.0000
    29 H29     -2.8242 -11.6202 -15.1431   H         1 RES1   0.0000
    30 H30     -4.2571 -11.4286 -14.1075   H         1 RES1   0.0000
    31 C31     -2.9587  -9.7258 -14.1530   C.3       1 RES1   0.0000
    32 H32     -3.4353  -9.2676 -15.0185   H         1 RES1   0.0000
    33 H33     -3.3978  -9.3232 -13.2414   H         1 RES1   0.0000
    34 C34     -0.7675 -10.1266 -13.0242   C.3       1 RES1   0.0000
    35 H35     -1.1556  -9.7504 -12.0788   H         1 RES1   0.0000
    36 H36      0.3026  -9.9322 -13.0804   H         1 RES1   0.0000
    37 N37     -2.4716 -11.9052 -13.0756   N.4       1 RES1   1.0000
    38 H38     -2.8552 -11.5765 -12.1952   H         1 RES1   0.0000
    39 H39     -2.6143 -12.9071 -13.1538   H         1 RES1   0.0000
    40 N40     -3.9081  -4.5953 -14.7781   N.ar      1 RES1   0.0000
    41 C41     -3.1167  -2.4156 -13.3874   C.ar      1 RES1   0.0000
    42 H42     -2.7950  -1.5467 -12.8228   H         1 RES1   0.0000
    43 N43     -5.8603  -3.4859 -15.2430   N.pl3     1 RES1   0.0000
    44 H44     -6.1105  -4.2899 -15.8185   H         1 RES1   0.0000
    45 C45     -2.2567  -3.4919 -13.4728   C.ar      1 RES1   0.0000
    46 H46     -1.2805  -3.4778 -12.9994   H         1 RES1   0.0000
    47 C47     -4.6594  -3.4907 -14.6426   C.ar      1 RES1   0.0000
    48 N48     -4.3254  -2.3837 -13.9635   N.ar      1 RES1   0.0000
    49 C49     -6.8063  -2.3723 -15.1747   C.3       1 RES1   0.0000
    50 H50     -6.3322  -1.4798 -15.6117   H         1 RES1   0.0000
    51 C51     -7.2196  -2.0515 -13.7518   C.ar      1 RES1   0.0000
    52 C52     -8.0180  -2.7424 -16.0221   C.3       1 RES1   0.0000
    53 H53     -8.7436  -1.9318 -16.0332   H         1 RES1   0.0000
    54 H54     -7.7243  -2.9483 -17.0492   H         1 RES1   0.0000
    55 H55     -8.5076  -3.6294 -15.6256   H         1 RES1   0.0000
    56 C56     -7.9769  -1.4770 -11.1332   C.ar      1 RES1   0.0000
    57 H57     -8.2712  -1.2529 -10.1133   H         1 RES1   0.0000
    58 C58     -7.2590  -3.0495 -12.7887   C.ar      1 RES1   0.0000
    59 H59     -6.9922  -4.0658 -13.0590   H         1 RES1   0.0000
    60 C60     -7.5686  -0.7601 -13.3811   C.ar      1 RES1   0.0000
    61 H61     -7.5471   0.0365 -14.1173   H         1 RES1   0.0000
    62 C62     -7.9445  -0.4760 -12.0790   C.ar      1 RES1   0.0000
    63 H63     -8.2141   0.5382 -11.8036   H         1 RES1   0.0000
    64 C64     -7.6344  -2.7634 -11.4871   C.ar      1 RES1   0.0000
    65 H65     -7.6587  -3.5542 -10.7448   H         1 RES1   0.0000
@<TRIPOS>BOND
     1     1     5   ar
     2     1     6   ar
     3     1     2    1
     4     3     8   ar
     5     3     9   ar
     6     3     4    1
     7     5     9   ar
     8     5    11    1
     9     6     8   ar
    10     6     7    1
    11     8    12    1
    12     9    10    1
    13    11    20    2
    14    11    23    1
    15    13    14    1
    16    13    23   am
    17    13    24    1
    18    14    31    1
    19    14    34    1
    20    14    15    1
    21    16    24    1
    22    16    17    1
    23    16    18    1
    24    16    19    1
    25    20    21    1
    26    20    24    1
    27    21    40   ar
    28    21    45   ar
    29    22    23    2
    30    25    34    1
    31    25    37    1
    32    25    26    1
    33    25    27    1
    34    28    31    1
    35    28    37    1
    36    28    29    1
    37    28    30    1
    38    31    32    1
    39    31    33    1
    40    34    35    1
    41    34    36    1
    42    37    38    1
    43    37    39    1
    44    40    47   ar
    45    41    45   ar
    46    41    48   ar
    47    41    42    1
    48    43    47    1
    49    43    49    1
    50    43    44    1
    51    45    46    1
    52    47    48   ar
    53    49    51    1
    54    49    52    1
    55    49    50    1
    56    51    58   ar
    57    51    60   ar
    58    52    53    1
    59    52    54    1
    60    52    55    1
    61    56    62   ar
    62    56    64   ar
    63    56    57    1
    64    58    64   ar
    65    58    59    1
    66    60    62   ar
    67    60    61    1
    68    62    63    1
    69    64    65    1
@<TRIPOS>SUBSTRUCTURE
     1 RES1        1 GROUP             0 ****  ****    0  
@<TRIPOS>MOLECULE
LIGAND_00403
    65    69     1     0     0
SMALL
USER_CHARGES
****
Generated from the CSD

@<TRIPOS>ATOM
     1 C1       0.5862  -4.8291 -16.8343   C.ar      1 RES1   0.0000
     2 H2       0.3520  -5.6938 -17.4457   H         1 RES1   0.0000
     3 C3       1.1661  -2.5991 -15.3103   C.ar      1 RES1   0.0000
     4 H4       1.3913  -1.7167 -14.7206   H         1 RES1   0.0000
     5 C5       0.1566  -4.7900 -15.5111   C.ar      1 RES1   0.0000
     6 C6       1.3026  -3.7837 -17.3897   C.ar      1 RES1   0.0000
     7 H7       1.6416  -3.8275 -18.4193   H         1 RES1   0.0000
     8 C8       1.5714  -2.6934 -16.6111   C.ar      1 RES1   0.0000
     9 C9       0.4627  -3.6565 -14.7633   C.ar      1 RES1   0.0000
    10 H10      0.1490  -3.5966 -13.7274   H         1 RES1   0.0000
    11 C11     -0.6235  -5.9131 -14.8968   C.2       1 RES1   0.0000
    12 F12      2.2708  -1.6591 -17.1524   F         1 RES1   0.0000
    13 N13     -1.2632  -7.9510 -14.1939   N.am      1 RES1   0.0000
    14 C14     -1.5349  -9.4138 -14.4015   C.3       1 RES1   0.0000
    15 H15     -1.0040  -9.7322 -15.2974   H         1 RES1   0.0000
    16 C16     -3.0980  -7.2565 -12.7826   C.3       1 RES1   0.0000
    17 H17     -4.1682  -7.2460 -12.9783   H         1 RES1   0.0000
    18 H18     -2.8470  -8.2110 -12.3246   H         1 RES1   0.0000
    19 H19     -2.8759  -6.4678 -12.0669   H         1 RES1   0.0000
    20 C20     -1.8662  -5.8070 -14.3768   C.2       1 RES1   0.0000
    21 C21     -2.6990  -4.5904 -14.1952   C.ar      1 RES1   0.0000
    22 O22      0.7844  -7.8550 -15.2323   O.2       1 RES1   0.0000
    23 C23     -0.2162  -7.2885 -14.8126   C.2       1 RES1   0.0000
    24 N24     -2.3426  -7.0592 -14.0202   N.3       1 RES1   0.0000
    25 C25     -1.2516 -11.7158 -13.4281   C.3       1 RES1   0.0000
    26 H26     -0.9064 -12.2647 -12.5532   H         1 RES1   0.0000
    27 H27     -0.7057 -12.0539 -14.3076   H         1 RES1   0.0000
    28 C28     -3.2647 -11.1951 -14.7803   C.3       1 RES1   0.0000
    29 H29     -2.7795 -11.5302 -15.6959   H         1 RES1   0.0000
    30 H30     -4.3363 -11.3756 -14.8504   H         1 RES1   0.0000
    31 C31     -3.0201  -9.7042 -14.6025   C.3       1 RES1   0.0000
    32 H32     -3.3690  -9.1778 -15.4897   H         1 RES1   0.0000
    33 H33     -3.5725  -9.3540 -13.7319   H         1 RES1   0.0000
    34 C34     -1.0070 -10.2311 -13.2217   C.3       1 RES1   0.0000
    35 H35     -1.5139  -9.9106 -12.3127   H         1 RES1   0.0000
    36 H36      0.0634 -10.0582 -13.1206   H         1 RES1   0.0000
    37 N37     -2.7132 -11.9621 -13.6248   N.4       1 RES1   1.0000
    38 H38     -3.2075 -11.6848 -12.7828   H         1 RES1   0.0000
    39 H39     -2.8580 -12.9528 -13.7913   H         1 RES1   0.0000
    40 N40     -3.0141  -4.2587 -12.9334   N.ar      1 RES1   0.0000
    41 C41     -3.9252  -2.7327 -14.9712   C.ar      1 RES1   0.0000
    42 H42     -4.2824  -2.1216 -15.7936   H         1 RES1   0.0000
    43 N43     -4.1219  -2.8547 -11.4981   N.pl3     1 RES1   0.0000
    44 H44     -4.6561  -1.9989 -11.3480   H         1 RES1   0.0000
    45 C45     -3.1463  -3.8330 -15.2679   C.ar      1 RES1   0.0000
    46 H46     -2.8983  -4.0940 -16.2914   H         1 RES1   0.0000
    47 C47     -3.7882  -3.1755 -12.7584   C.ar      1 RES1   0.0000
    48 N48     -4.2655  -2.3783 -13.7253   N.ar      1 RES1   0.0000
    49 C49     -3.7137  -3.6219 -10.3215   C.3       1 RES1   0.0000
    50 H50     -2.6137  -3.6529 -10.2852   H         1 RES1   0.0000
    51 C51     -4.2360  -5.0449 -10.3497   C.ar      1 RES1   0.0000
    52 C52     -4.2194  -2.8818  -9.0887   C.3       1 RES1   0.0000
    53 H53     -3.9145  -3.3941  -8.1786   H         1 RES1   0.0000
    54 H54     -3.8244  -1.8686  -9.0558   H         1 RES1   0.0000
    55 H55     -5.3057  -2.8217  -9.0955   H         1 RES1   0.0000
    56 C56     -5.2078  -7.6549 -10.4102   C.ar      1 RES1   0.0000
    57 H57     -5.5857  -8.6716 -10.4343   H         1 RES1   0.0000
    58 C58     -5.4073  -5.3510 -11.0276   C.ar      1 RES1   0.0000
    59 H59     -5.9513  -4.5643 -11.5397   H         1 RES1   0.0000
    60 C60     -3.5606  -6.0688  -9.7000   C.ar      1 RES1   0.0000
    61 H61     -2.6435  -5.8533  -9.1619   H         1 RES1   0.0000
    62 C62     -4.0446  -7.3658  -9.7312   C.ar      1 RES1   0.0000
    63 H63     -3.5057  -8.1561  -9.2194   H         1 RES1   0.0000
    64 C64     -5.8894  -6.6485 -11.0583   C.ar      1 RES1   0.0000
    65 H65     -6.8057  -6.8727 -11.5941   H         1 RES1   0.0000
@<TRIPOS>BOND
     1     1     5   ar
     2     1     6   ar
     3     1     2    1
     4     3     8   ar
     5     3     9   ar
     6     3     4    1
     7     5     9   ar
     8     5    11    1
     9     6     8   ar
    10     6     7    1
    11     8    12    1
    12     9    10    1
    13    11    20    2
    14    11    23    1
    15    13    14    1
    16    13    23   am
    17    13    24    1
    18    14    31    1
    19    14    34    1
    20    14    15    1
    21    16    24    1
    22    16    17    1
    23    16    18    1
    24    16    19    1
    25    20    21    1
    26    20    24    1
    27    21    40   ar
    28    21    45   ar
    29    22    23    2
    30    25    34    1
    31    25    37    1
    32    25    26    1
    33    25    27    1
    34    28    31    1
    35    28    37    1
    36    28    29    1
    37    28    30    1
    38    31    32    1
    39    31    33    1
    40    34    35    1
    41    34    36    1
    42    37    38    1
    43    37    39    1
    44    40    47   ar
    45    41    45   ar
    46    41    48   ar
    47    41    42    1
    48    43    47    1
    49    43    49    1
    50    43    44    1
    51    45    46    1
    52    47    48   ar
    53    49    51    1
    54    49    52    1
    55    49    50    1
    56    51    58   ar
    57    51    60   ar
    58    52    53    1
    59    52    54    1
    60    52    55    1
    61    56    62   ar
    62    56    64   ar
    63    56    57    1
    64    58    64   ar
    65    58    59    1
    66    60    62   ar
    67    60    61    1
    68    62    63    1
    69    64    65    1
@<TRIPOS>SUBSTRUCTURE
     1 RES1        1 GROUP             0 ****  ****    0  
@<TRIPOS>MOLECULE
LIGAND_00404
    65    69     1     0     0
SMALL
USER_CHARGES
****
Generated from the CSD

@<TRIPOS>ATOM
     1 C1      -0.2178  -4.0893 -16.5761   C.ar      1 RES1   0.0000
     2 H2      -1.1420  -4.3723 -17.0682   H         1 RES1   0.0000
     3 C3       2.1221  -3.3242 -15.3226   C.ar      1 RES1   0.0000
     4 H4       3.0383  -3.0129 -14.8317   H         1 RES1   0.0000
     5 C5       0.1901  -4.7780 -15.4377   C.ar      1 RES1   0.0000
     6 C6       0.5292  -3.0450 -17.0919   C.ar      1 RES1   0.0000
     7 H7       0.2081  -2.5203 -17.9855   H         1 RES1   0.0000
     8 C8       1.6804  -2.6885 -16.4478   C.ar      1 RES1   0.0000
     9 C9       1.3734  -4.3751 -14.8252   C.ar      1 RES1   0.0000
    10 H10      1.7234  -4.8947 -13.9406   H         1 RES1   0.0000
    11 C11     -0.6104  -5.9088 -14.8652   C.2       1 RES1   0.0000
    12 F12      2.4173  -1.6587 -16.9462   F         1 RES1   0.0000
    13 N13     -1.2764  -7.9565 -14.2174   N.am      1 RES1   0.0000
    14 C14     -1.5478  -9.4141 -14.4589   C.3       1 RES1   0.0000
    15 H15     -0.9993  -9.7168 -15.3497   H         1 RES1   0.0000
    16 C16     -3.1458  -7.2802 -12.8431   C.3       1 RES1   0.0000
    17 H17     -4.2099  -7.2777 -13.0698   H         1 RES1   0.0000
    18 H18     -2.8991  -8.2369 -12.3873   H         1 RES1   0.0000
    19 H19     -2.9521  -6.4967 -12.1135   H         1 RES1   0.0000
    20 C20     -1.8662  -5.8070 -14.3768   C.2       1 RES1   0.0000
    21 C21     -2.6990  -4.5904 -14.1952   C.ar      1 RES1   0.0000
    22 O22      0.7987  -7.8502 -15.1986   O.2       1 RES1   0.0000
    23 C23     -0.2107  -7.2873 -14.7955   C.2       1 RES1   0.0000
    24 N24     -2.3566  -7.0634 -14.0562   N.3       1 RES1   0.0000
    25 C25     -1.2917 -11.7355 -13.5249   C.3       1 RES1   0.0000
    26 H26     -0.9664 -12.3024 -12.6539   H         1 RES1   0.0000
    27 H27     -0.7285 -12.0583 -14.3992   H         1 RES1   0.0000
    28 C28     -3.2745 -11.1820 -14.9084   C.3       1 RES1   0.0000
    29 H29     -2.7713 -11.5009 -15.8201   H         1 RES1   0.0000
    30 H30     -4.3450 -11.3576 -15.0043   H         1 RES1   0.0000
    31 C31     -3.0294  -9.6957 -14.6966   C.3       1 RES1   0.0000
    32 H32     -3.3581  -9.1510 -15.5804   H         1 RES1   0.0000
    33 H33     -3.5989  -9.3606 -13.8310   H         1 RES1   0.0000
    34 C34     -1.0472 -10.2559 -13.2846   C.3       1 RES1   0.0000
    35 H35     -1.5721  -9.9515 -12.3803   H         1 RES1   0.0000
    36 H36      0.0214 -10.0885 -13.1578   H         1 RES1   0.0000
    37 N37     -2.7496 -11.9731 -13.7568   N.4       1 RES1   1.0000
    38 H38     -3.2606 -11.7106 -12.9201   H         1 RES1   0.0000
    39 H39     -2.8937 -12.9600 -13.9456   H         1 RES1   0.0000
    40 N40     -3.0141  -4.2587 -12.9334   N.ar      1 RES1   0.0000
    41 C41     -3.9252  -2.7327 -14.9712   C.ar      1 RES1   0.0000
    42 H42     -4.2824  -2.1216 -15.7936   H         1 RES1   0.0000
    43 N43     -4.1219  -2.8547 -11.4981   N.pl3     1 RES1   0.0000
    44 H44     -4.6581  -2.0001 -11.3482   H         1 RES1   0.0000
    45 C45     -3.1463  -3.8330 -15.2679   C.ar      1 RES1   0.0000
    46 H46     -2.8983  -4.0940 -16.2914   H         1 RES1   0.0000
    47 C47     -3.7882  -3.1755 -12.7584   C.ar      1 RES1   0.0000
    48 N48     -4.2655  -2.3783 -13.7253   N.ar      1 RES1   0.0000
    49 C49     -3.7111  -3.6201 -10.3213   C.3       1 RES1   0.0000
    50 H50     -2.6110  -3.6453 -10.2836   H         1 RES1   0.0000
    51 C51     -4.2258  -5.0458 -10.3506   C.ar      1 RES1   0.0000
    52 C52     -4.2222  -2.8831  -9.0889   C.3       1 RES1   0.0000
    53 H53     -3.9157  -3.3941  -8.1785   H         1 RES1   0.0000
    54 H54     -3.8326  -1.8679  -9.0551   H         1 RES1   0.0000
    55 H55     -5.3088  -2.8288  -9.0969   H         1 RES1   0.0000
    56 C56     -5.1837  -7.6610 -10.4130   C.ar      1 RES1   0.0000
    57 H57     -5.5562  -8.6796 -10.4378   H         1 RES1   0.0000
    58 C58     -5.3997  -5.3563 -11.0218   C.ar      1 RES1   0.0000
    59 H59     -5.9514  -4.5709 -11.5279   H         1 RES1   0.0000
    60 C60     -3.5406  -6.0681  -9.7085   C.ar      1 RES1   0.0000
    61 H61     -2.6212  -5.8492  -9.1757   H         1 RES1   0.0000
    62 C62     -4.0177  -7.3676  -9.7407   C.ar      1 RES1   0.0000
    63 H63     -3.4712  -8.1566  -9.2349   H         1 RES1   0.0000
    64 C64     -5.8749  -6.6563 -11.0535   C.ar      1 RES1   0.0000
    65 H65     -6.7935  -6.8838 -11.5840   H         1 RES1   0.0000
@<TRIPOS>BOND
     1     1     5   ar
     2     1     6   ar
     3     1     2    1
     4     3     8   ar
     5     3     9   ar
     6     3     4    1
     7     5     9   ar
     8     5    11    1
     9     6     8   ar
    10     6     7    1
    11     8    12    1
    12     9    10    1
    13    11    20    2
    14    11    23    1
    15    13    14    1
    16    13    23   am
    17    13    24    1
    18    14    31    1
    19    14    34    1
    20    14    15    1
    21    16    24    1
    22    16    17    1
    23    16    18    1
    24    16    19    1
    25    20    21    1
    26    20    24    1
    27    21    40   ar
    28    21    45   ar
    29    22    23    2
    30    25    34    1
    31    25    37    1
    32    25    26    1
    33    25    27    1
    34    28    31    1
    35    28    37    1
    36    28    29    1
    37    28    30    1
    38    31    32    1
    39    31    33    1
    40    34    35    1
    41    34    36    1
    42    37    38    1
    43    37    39    1
    44    40    47   ar
    45    41    45   ar
    46    41    48   ar
    47    41    42    1
    48    43    47    1
    49    43    49    1
    50    43    44    1
    51    45    46    1
    52    47    48   ar
    53    49    51    1
    54    49    52    1
    55    49    50    1
    56    51    58   ar
    57    51    60   ar
    58    52    53    1
    59    52    54    1
    60    52    55    1
    61    56    62   ar
    62    56    64   ar
    63    56    57    1
    64    58    64   ar
    65    58    59    1
    66    60    62   ar
    67    60    61    1
    68    62    63    1
    69    64    65    1
@<TRIPOS>SUBSTRUCTURE
     1 RES1        1 GROUP             0 ****  ****    0  
@<TRIPOS>MOLECULE
LIGAND_00405
    65    69     1     0     0
SMALL
USER_CHARGES
****
Generated from the CSD

@<TRIPOS>ATOM
     1 C1      -0.1608  -3.7567 -12.4283   C.ar      1 RES1   0.0000
     2 H2       0.8272  -4.1154 -12.6960   H         1 RES1   0.0000
     3 C3      -2.6670  -2.8020 -11.7656   C.ar      1 RES1   0.0000
     4 H4      -3.6482  -2.4167 -11.5085   H         1 RES1   0.0000
     5 C5      -1.2784  -4.5149 -12.7641   C.ar      1 RES1   0.0000
     6 C6      -0.2833  -2.5494 -11.7635   C.ar      1 RES1   0.0000
     7 H7       0.5944  -1.9699 -11.4974   H         1 RES1   0.0000
     8 C8      -1.5366  -2.1027 -11.4518   C.ar      1 RES1   0.0000
     9 C9      -2.5300  -4.0136 -12.4178   C.ar      1 RES1   0.0000
    10 H10     -3.4209  -4.5824 -12.6584   H         1 RES1   0.0000
    11 C11     -1.1616  -5.8227 -13.4875   C.2       1 RES1   0.0000
    12 F12     -1.6650  -0.9135 -10.8029   F         1 RES1   0.0000
    13 N13     -1.2436  -7.9406 -14.1589   N.am      1 RES1   0.0000
    14 C14     -1.5176  -9.4095 -14.3130   C.3       1 RES1   0.0000
    15 H15     -1.1144  -9.7295 -15.2727   H         1 RES1   0.0000
    16 C16     -0.3352  -7.6714 -16.4998   C.3       1 RES1   0.0000
    17 H17      0.3341  -6.9947 -17.0271   H         1 RES1   0.0000
    18 H18      0.1350  -8.6520 -16.4629   H         1 RES1   0.0000
    19 H19     -1.2542  -7.7572 -17.0756   H         1 RES1   0.0000
    20 C20     -0.5870  -5.9122 -14.7311   C.2       1 RES1   0.0000
    21 C21      0.0604  -4.8376 -15.5265   C.ar      1 RES1   0.0000
    22 O22     -2.1465  -7.5603 -12.1260   O.2       1 RES1   0.0000
    23 C23     -1.5799  -7.1372 -13.1251   C.2       1 RES1   0.0000
    24 N24     -0.6145  -7.1779 -15.1508   N.pl3     1 RES1   0.0000
    25 C25     -1.0604 -11.6962 -13.3702   C.3       1 RES1   0.0000
    26 H26     -0.5850 -12.2303 -12.5488   H         1 RES1   0.0000
    27 H27     -0.6396 -12.0355 -14.3156   H         1 RES1   0.0000
    28 C28     -3.2537 -11.2211 -14.4263   C.3       1 RES1   0.0000
    29 H29     -2.8983 -11.5586 -15.3988   H         1 RES1   0.0000
    30 H30     -4.3213 -11.4187 -14.3415   H         1 RES1   0.0000
    31 C31     -3.0112  -9.7248 -14.2980   C.3       1 RES1   0.0000
    32 H32     -3.4916  -9.2134 -15.1309   H         1 RES1   0.0000
    33 H33     -3.4399  -9.3736 -13.3605   H         1 RES1   0.0000
    34 C34     -0.8137 -10.2058 -13.2135   C.3       1 RES1   0.0000
    35 H35     -1.1914  -9.8833 -12.2443   H         1 RES1   0.0000
    36 H36      0.2572 -10.0155 -13.2674   H         1 RES1   0.0000
    37 N37     -2.5308 -11.9670 -13.3546   N.4       1 RES1   1.0000
    38 H38     -2.9048 -11.6881 -12.4532   H         1 RES1   0.0000
    39 H39     -2.6813 -12.9616 -13.4903   H         1 RES1   0.0000
    40 N40     -0.7059  -3.7852 -15.8536   N.ar      1 RES1   0.0000
    41 C41      1.8690  -3.8559 -16.6763   C.ar      1 RES1   0.0000
    42 H42      2.9047  -3.8883 -16.9980   H         1 RES1   0.0000
    43 N43     -0.9099  -1.7764 -16.9406   N.pl3     1 RES1   0.0000
    44 H44     -0.4691  -0.9972 -17.4294   H         1 RES1   0.0000
    45 C45      1.3859  -4.9110 -15.9288   C.ar      1 RES1   0.0000
    46 H46      2.0127  -5.7582 -15.6708   H         1 RES1   0.0000
    47 C47     -0.1387  -2.8196 -16.5946   C.ar      1 RES1   0.0000
    48 N48      1.1302  -2.7954 -17.0275   N.ar      1 RES1   0.0000
    49 C49     -2.3288  -1.6591 -16.6052   C.3       1 RES1   0.0000
    50 H50     -2.4375  -1.7095 -15.5107   H         1 RES1   0.0000
    51 C51     -3.1623  -2.7637 -17.2244   C.ar      1 RES1   0.0000
    52 C52     -2.8039  -0.2901 -17.0777   C.3       1 RES1   0.0000
    53 H53     -3.8685  -0.1653 -16.8914   H         1 RES1   0.0000
    54 H54     -2.2736   0.5050 -16.5576   H         1 RES1   0.0000
    55 H55     -2.6308  -0.1707 -18.1451   H         1 RES1   0.0000
    56 C56     -4.6951  -4.7852 -18.3754   C.ar      1 RES1   0.0000
    57 H57     -5.2914  -5.5729 -18.8238   H         1 RES1   0.0000
    58 C58     -3.6507  -2.6362 -18.5168   C.ar      1 RES1   0.0000
    59 H59     -3.4334  -1.7381 -19.0856   H         1 RES1   0.0000
    60 C60     -3.4570  -3.9211 -16.5169   C.ar      1 RES1   0.0000
    61 H61     -3.0875  -4.0426 -15.5041   H         1 RES1   0.0000
    62 C62     -4.2187  -4.9252 -17.0904   C.ar      1 RES1   0.0000
    63 H63     -4.4406  -5.8246 -16.5257   H         1 RES1   0.0000
    64 C64     -4.4116  -3.6415 -19.0889   C.ar      1 RES1   0.0000
    65 H65     -4.7850  -3.5280 -20.1012   H         1 RES1   0.0000
@<TRIPOS>BOND
     1     1     5   ar
     2     1     6   ar
     3     1     2    1
     4     3     8   ar
     5     3     9   ar
     6     3     4    1
     7     5     9   ar
     8     5    11    1
     9     6     8   ar
    10     6     7    1
    11     8    12    1
    12     9    10    1
    13    11    20    2
    14    11    23    1
    15    13    14    1
    16    13    23   am
    17    13    24    1
    18    14    31    1
    19    14    34    1
    20    14    15    1
    21    16    24    1
    22    16    17    1
    23    16    18    1
    24    16    19    1
    25    20    21    1
    26    20    24    1
    27    21    40   ar
    28    21    45   ar
    29    22    23    2
    30    25    34    1
    31    25    37    1
    32    25    26    1
    33    25    27    1
    34    28    31    1
    35    28    37    1
    36    28    29    1
    37    28    30    1
    38    31    32    1
    39    31    33    1
    40    34    35    1
    41    34    36    1
    42    37    38    1
    43    37    39    1
    44    40    47   ar
    45    41    45   ar
    46    41    48   ar
    47    41    42    1
    48    43    47    1
    49    43    49    1
    50    43    44    1
    51    45    46    1
    52    47    48   ar
    53    49    51    1
    54    49    52    1
    55    49    50    1
    56    51    58   ar
    57    51    60   ar
    58    52    53    1
    59    52    54    1
    60    52    55    1
    61    56    62   ar
    62    56    64   ar
    63    56    57    1
    64    58    64   ar
    65    58    59    1
    66    60    62   ar
    67    60    61    1
    68    62    63    1
    69    64    65    1
@<TRIPOS>SUBSTRUCTURE
     1 RES1        1 GROUP             0 ****  ****    0  
@<TRIPOS>MOLECULE
LIGAND_00406
    65    69     1     0     0
SMALL
USER_CHARGES
****
Generated from the CSD

@<TRIPOS>ATOM
     1 C1      -0.1604  -3.7568 -12.4282   C.ar      1 RES1   0.0000
     2 H2       0.8275  -4.1156 -12.6961   H         1 RES1   0.0000
     3 C3      -2.6665  -2.8020 -11.7652   C.ar      1 RES1   0.0000
     4 H4      -3.6476  -2.4167 -11.5080   H         1 RES1   0.0000
     5 C5      -1.2781  -4.5150 -12.7640   C.ar      1 RES1   0.0000
     6 C6      -0.2828  -2.5496 -11.7633   C.ar      1 RES1   0.0000
     7 H7       0.5950  -1.9702 -11.4972   H         1 RES1   0.0000
     8 C8      -1.5360  -2.1029 -11.4515   C.ar      1 RES1   0.0000
     9 C9      -2.5296  -4.0136 -12.4175   C.ar      1 RES1   0.0000
    10 H10     -3.4206  -4.5823 -12.6581   H         1 RES1   0.0000
    11 C11     -1.1615  -5.8228 -13.4874   C.2       1 RES1   0.0000
    12 F12     -1.6642  -0.9136 -10.8025   F         1 RES1   0.0000
    13 N13     -1.2437  -7.9406 -14.1589   N.am      1 RES1   0.0000
    14 C14     -1.5178  -9.4095 -14.3131   C.3       1 RES1   0.0000
    15 H15     -1.1149  -9.7294 -15.2730   H         1 RES1   0.0000
    16 C16     -0.3355  -7.6714 -16.4999   C.3       1 RES1   0.0000
    17 H17      0.3659  -7.0163 -17.0127   H         1 RES1   0.0000
    18 H18      0.0971  -8.6691 -16.4647   H         1 RES1   0.0000
    19 H19     -1.2491  -7.7181 -17.0888   H         1 RES1   0.0000
    20 C20     -0.5870  -5.9122 -14.7311   C.2       1 RES1   0.0000
    21 C21      0.0604  -4.8376 -15.5265   C.ar      1 RES1   0.0000
    22 O22     -2.1464  -7.5604 -12.1259   O.2       1 RES1   0.0000
    23 C23     -1.5798  -7.1372 -13.1250   C.2       1 RES1   0.0000
    24 N24     -0.6146  -7.1778 -15.1509   N.pl3     1 RES1   0.0000
    25 C25     -1.0604 -11.6963 -13.3706   C.3       1 RES1   0.0000
    26 H26     -0.5849 -12.2304 -12.5494   H         1 RES1   0.0000
    27 H27     -0.6399 -12.0355 -14.3162   H         1 RES1   0.0000
    28 C28     -3.2541 -11.2209 -14.4261   C.3       1 RES1   0.0000
    29 H29     -2.8989 -11.5584 -15.3987   H         1 RES1   0.0000
    30 H30     -4.3216 -11.4185 -14.3409   H         1 RES1   0.0000
    31 C31     -3.0115  -9.7247 -14.2977   C.3       1 RES1   0.0000
    32 H32     -3.4920  -9.2132 -15.1304   H         1 RES1   0.0000
    33 H33     -3.4399  -9.3736 -13.3601   H         1 RES1   0.0000
    34 C34     -0.8136 -10.2059 -13.2139   C.3       1 RES1   0.0000
    35 H35     -1.1910  -9.8834 -12.2446   H         1 RES1   0.0000
    36 H36      0.2572 -10.0156 -13.2681   H         1 RES1   0.0000
    37 N37     -2.5308 -11.9670 -13.3547   N.4       1 RES1   1.0000
    38 H38     -2.9046 -11.6882 -12.4531   H         1 RES1   0.0000
    39 H39     -2.6814 -12.9615 -13.4904   H         1 RES1   0.0000
    40 N40     -0.7059  -3.7852 -15.8536   N.ar      1 RES1   0.0000
    41 C41      1.8690  -3.8559 -16.6763   C.ar      1 RES1   0.0000
    42 H42      2.9047  -3.8883 -16.9980   H         1 RES1   0.0000
    43 N43     -0.9099  -1.7764 -16.9406   N.pl3     1 RES1   0.0000
    44 H44     -1.9006  -1.8138 -16.7011   H         1 RES1   0.0000
    45 C45      1.3859  -4.9110 -15.9288   C.ar      1 RES1   0.0000
    46 H46      2.0127  -5.7582 -15.6708   H         1 RES1   0.0000
    47 C47     -0.1387  -2.8196 -16.5946   C.ar      1 RES1   0.0000
    48 N48      1.1302  -2.7954 -17.0275   N.ar      1 RES1   0.0000
    49 C49     -0.4315  -0.6181 -17.6951   C.3       1 RES1   0.0000
    50 H50     -0.0184  -0.9681 -18.6538   H         1 RES1   0.0000
    51 C51      0.6477   0.1478 -16.9553   C.ar      1 RES1   0.0000
    52 C52     -1.6327   0.2753 -17.9814   C.3       1 RES1   0.0000
    53 H53     -1.3272   1.1751 -18.5113   H         1 RES1   0.0000
    54 H54     -2.3662  -0.2456 -18.5932   H         1 RES1   0.0000
    55 H55     -2.1171   0.5764 -17.0548   H         1 RES1   0.0000
    56 C56      2.6196   1.5632 -15.5884   C.ar      1 RES1   0.0000
    57 H57      3.3877   2.1139 -15.0556   H         1 RES1   0.0000
    58 C58      0.3085   1.1239 -16.0294   C.ar      1 RES1   0.0000
    59 H59     -0.7373   1.3386 -15.8359   H         1 RES1   0.0000
    60 C60      1.9926  -0.1056 -17.1869   C.ar      1 RES1   0.0000
    61 H61      2.2822  -0.8631 -17.9077   H         1 RES1   0.0000
    62 C62      2.9717   0.5984 -16.5065   C.ar      1 RES1   0.0000
    63 H63      4.0190   0.3892 -16.6973   H         1 RES1   0.0000
    64 C64      1.2888   1.8263 -15.3494   C.ar      1 RES1   0.0000
    65 H65      1.0079   2.5854 -14.6270   H         1 RES1   0.0000
@<TRIPOS>BOND
     1     1     5   ar
     2     1     6   ar
     3     1     2    1
     4     3     8   ar
     5     3     9   ar
     6     3     4    1
     7     5     9   ar
     8     5    11    1
     9     6     8   ar
    10     6     7    1
    11     8    12    1
    12     9    10    1
    13    11    20    2
    14    11    23    1
    15    13    14    1
    16    13    23   am
    17    13    24    1
    18    14    31    1
    19    14    34    1
    20    14    15    1
    21    16    24    1
    22    16    17    1
    23    16    18    1
    24    16    19    1
    25    20    21    1
    26    20    24    1
    27    21    40   ar
    28    21    45   ar
    29    22    23    2
    30    25    34    1
    31    25    37    1
    32    25    26    1
    33    25    27    1
    34    28    31    1
    35    28    37    1
    36    28    29    1
    37    28    30    1
    38    31    32    1
    39    31    33    1
    40    34    35    1
    41    34    36    1
    42    37    38    1
    43    37    39    1
    44    40    47   ar
    45    41    45   ar
    46    41    48   ar
    47    41    42    1
    48    43    47    1
    49    43    49    1
    50    43    44    1
    51    45    46    1
    52    47    48   ar
    53    49    51    1
    54    49    52    1
    55    49    50    1
    56    51    58   ar
    57    51    60   ar
    58    52    53    1
    59    52    54    1
    60    52    55    1
    61    56    62   ar
    62    56    64   ar
    63    56    57    1
    64    58    64   ar
    65    58    59    1
    66    60    62   ar
    67    60    61    1
    68    62    63    1
    69    64    65    1
@<TRIPOS>SUBSTRUCTURE
     1 RES1        1 GROUP             0 ****  ****    0  
@<TRIPOS>MOLECULE
LIGAND_00407
    65    69     1     0     0
SMALL
USER_CHARGES
****
Generated from the CSD

@<TRIPOS>ATOM
     1 C1      -0.3894  -4.4145 -11.4853   C.ar      1 RES1   0.0000
     2 H2       0.1887  -5.2478 -11.1007   H         1 RES1   0.0000
     3 C3      -1.8245  -2.2646 -12.4601   C.ar      1 RES1   0.0000
     4 H4      -2.3796  -1.4134 -12.8402   H         1 RES1   0.0000
     5 C5      -1.0931  -4.5619 -12.6768   C.ar      1 RES1   0.0000
     6 C6      -0.4066  -3.2231 -10.7818   C.ar      1 RES1   0.0000
     7 H7       0.1374  -3.1208  -9.8488   H         1 RES1   0.0000
     8 C8      -1.1236  -2.1773 -11.2912   C.ar      1 RES1   0.0000
     9 C9      -1.8101  -3.4650 -13.1464   C.ar      1 RES1   0.0000
    10 H10     -2.3749  -3.5481 -14.0679   H         1 RES1   0.0000
    11 C11     -1.0809  -5.8451 -13.4519   C.2       1 RES1   0.0000
    12 F12     -1.1405  -1.0008 -10.6075   F         1 RES1   0.0000
    13 N13     -1.3013  -7.9300 -14.1915   N.am      1 RES1   0.0000
    14 C14     -1.6518  -9.3785 -14.3803   C.3       1 RES1   0.0000
    15 H15     -1.3224  -9.6790 -15.3739   H         1 RES1   0.0000
    16 C16     -0.5240  -7.6120 -16.5732   C.3       1 RES1   0.0000
    17 H17      0.1982  -6.9881 -17.0957   H         1 RES1   0.0000
    18 H18     -0.1662  -8.6392 -16.6002   H         1 RES1   0.0000
    19 H19     -1.4666  -7.5666 -17.1146   H         1 RES1   0.0000
    20 C20     -0.5870  -5.9122 -14.7311   C.2       1 RES1   0.0000
    21 C21      0.0604  -4.8376 -15.5265   C.ar      1 RES1   0.0000
    22 O22     -2.0614  -7.5882 -12.0944   O.2       1 RES1   0.0000
    23 C23     -1.5370  -7.1527 -13.1111   C.2       1 RES1   0.0000
    24 N24     -0.6984  -7.1585 -15.1929   N.pl3     1 RES1   0.0000
    25 C25     -1.2451 -11.7174 -13.5492   C.3       1 RES1   0.0000
    26 H26     -0.7464 -12.3029 -12.7782   H         1 RES1   0.0000
    27 H27     -0.8982 -12.0386 -14.5302   H         1 RES1   0.0000
    28 C28     -3.4737 -11.1061 -14.4500   C.3       1 RES1   0.0000
    29 H29     -3.1935 -11.4216 -15.4540   H         1 RES1   0.0000
    30 H30     -4.5422 -11.2595 -14.3063   H         1 RES1   0.0000
    31 C31     -3.1548  -9.6279 -14.2840   C.3       1 RES1   0.0000
    32 H32     -3.6602  -9.0644 -15.0669   H         1 RES1   0.0000
    33 H33     -3.5095  -9.2943 -13.3100   H         1 RES1   0.0000
    34 C34     -0.9206 -10.2464 -13.3554   C.3       1 RES1   0.0000
    35 H35     -1.2239  -9.9448 -12.3539   H         1 RES1   0.0000
    36 H36      0.1528 -10.1016 -13.4687   H         1 RES1   0.0000
    37 N37     -2.7228 -11.9235 -13.4522   N.4       1 RES1   1.0000
    38 H38     -3.0286 -11.6630 -12.5201   H         1 RES1   0.0000
    39 H39     -2.9272 -12.9046 -13.6135   H         1 RES1   0.0000
    40 N40     -0.7059  -3.7852 -15.8536   N.ar      1 RES1   0.0000
    41 C41      1.8690  -3.8559 -16.6763   C.ar      1 RES1   0.0000
    42 H42      2.9047  -3.8883 -16.9980   H         1 RES1   0.0000
    43 N43     -0.9099  -1.7764 -16.9406   N.pl3     1 RES1   0.0000
    44 H44     -0.4599  -0.9750 -17.3830   H         1 RES1   0.0000
    45 C45      1.3859  -4.9110 -15.9288   C.ar      1 RES1   0.0000
    46 H46      2.0127  -5.7582 -15.6708   H         1 RES1   0.0000
    47 C47     -0.1387  -2.8196 -16.5946   C.ar      1 RES1   0.0000
    48 N48      1.1302  -2.7954 -17.0275   N.ar      1 RES1   0.0000
    49 C49     -2.3440  -1.6906 -16.6662   C.3       1 RES1   0.0000
    50 H50     -2.5036  -1.8121 -15.5835   H         1 RES1   0.0000
    51 C51     -3.1366  -2.7588 -17.3937   C.ar      1 RES1   0.0000
    52 C52     -2.8099  -0.2973 -17.0722   C.3       1 RES1   0.0000
    53 H53     -3.8827  -0.1908 -16.9255   H         1 RES1   0.0000
    54 H54     -2.3096   0.4664 -16.4804   H         1 RES1   0.0000
    55 H55     -2.5915  -0.1097 -18.1214   H         1 RES1   0.0000
    56 C56     -4.5939  -4.7123 -18.7430   C.ar      1 RES1   0.0000
    57 H57     -5.1608  -5.4735 -19.2686   H         1 RES1   0.0000
    58 C58     -3.5836  -2.5432 -18.6894   C.ar      1 RES1   0.0000
    59 H59     -3.3632  -1.6022 -19.1826   H         1 RES1   0.0000
    60 C60     -3.4344  -3.9698 -16.7840   C.ar      1 RES1   0.0000
    61 H61     -3.0971  -4.1605 -15.7706   H         1 RES1   0.0000
    62 C62     -4.1586  -4.9400 -17.4560   C.ar      1 RES1   0.0000
    63 H63     -4.3833  -5.8820 -16.9671   H         1 RES1   0.0000
    64 C64     -4.3068  -3.5147 -19.3600   C.ar      1 RES1   0.0000
    65 H65     -4.6480  -3.3321 -20.3736   H         1 RES1   0.0000
@<TRIPOS>BOND
     1     1     5   ar
     2     1     6   ar
     3     1     2    1
     4     3     8   ar
     5     3     9   ar
     6     3     4    1
     7     5     9   ar
     8     5    11    1
     9     6     8   ar
    10     6     7    1
    11     8    12    1
    12     9    10    1
    13    11    20    2
    14    11    23    1
    15    13    14    1
    16    13    23   am
    17    13    24    1
    18    14    31    1
    19    14    34    1
    20    14    15    1
    21    16    24    1
    22    16    17    1
    23    16    18    1
    24    16    19    1
    25    20    21    1
    26    20    24    1
    27    21    40   ar
    28    21    45   ar
    29    22    23    2
    30    25    34    1
    31    25    37    1
    32    25    26    1
    33    25    27    1
    34    28    31    1
    35    28    37    1
    36    28    29    1
    37    28    30    1
    38    31    32    1
    39    31    33    1
    40    34    35    1
    41    34    36    1
    42    37    38    1
    43    37    39    1
    44    40    47   ar
    45    41    45   ar
    46    41    48   ar
    47    41    42    1
    48    43    47    1
    49    43    49    1
    50    43    44    1
    51    45    46    1
    52    47    48   ar
    53    49    51    1
    54    49    52    1
    55    49    50    1
    56    51    58   ar
    57    51    60   ar
    58    52    53    1
    59    52    54    1
    60    52    55    1
    61    56    62   ar
    62    56    64   ar
    63    56    57    1
    64    58    64   ar
    65    58    59    1
    66    60    62   ar
    67    60    61    1
    68    62    63    1
    69    64    65    1
@<TRIPOS>SUBSTRUCTURE
     1 RES1        1 GROUP             0 ****  ****    0  
@<TRIPOS>MOLECULE
LIGAND_00408
    65    69     1     0     0
SMALL
USER_CHARGES
****
Generated from the CSD

@<TRIPOS>ATOM
     1 C1      -0.2665  -3.7377 -12.4038   C.ar      1 RES1   0.0000
     2 H2       0.7367  -4.1017 -12.5980   H         1 RES1   0.0000
     3 C3      -2.8098  -2.7698 -11.9283   C.ar      1 RES1   0.0000
     4 H4      -3.8054  -2.3794 -11.7446   H         1 RES1   0.0000
     5 C5      -1.3602  -4.4977 -12.8074   C.ar      1 RES1   0.0000
     6 C6      -0.4313  -2.5222 -11.7636   C.ar      1 RES1   0.0000
     7 H7       0.4275  -1.9415 -11.4440   H         1 RES1   0.0000
     8 C8      -1.7019  -2.0692 -11.5451   C.ar      1 RES1   0.0000
     9 C9      -2.6314  -3.9895 -12.5549   C.ar      1 RES1   0.0000
    10 H10     -3.5051  -4.5593 -12.8501   H         1 RES1   0.0000
    11 C11     -1.1974  -5.8144 -13.5053   C.2       1 RES1   0.0000
    12 F12     -1.8715  -0.8719 -10.9209   F         1 RES1   0.0000
    13 N13     -1.2183  -7.9441 -14.1430   N.am      1 RES1   0.0000
    14 C14     -1.4584  -9.4206 -14.2799   C.3       1 RES1   0.0000
    15 H15     -1.0225  -9.7478 -15.2227   H         1 RES1   0.0000
    16 C16     -0.2512  -7.6944 -16.4625   C.3       1 RES1   0.0000
    17 H17      0.4198  -7.0135 -16.9820   H         1 RES1   0.0000
    18 H18      0.2360  -8.6650 -16.3965   H         1 RES1   0.0000
    19 H19     -1.1520  -7.8069 -17.0621   H         1 RES1   0.0000
    20 C20     -0.5870  -5.9122 -14.7311   C.2       1 RES1   0.0000
    21 C21      0.0604  -4.8376 -15.5265   C.ar      1 RES1   0.0000
    22 O22     -2.1844  -7.5495 -12.1421   O.2       1 RES1   0.0000
    23 C23     -1.5990  -7.1311 -13.1324   C.2       1 RES1   0.0000
    24 N24     -0.5775  -7.1848 -15.1301   N.pl3     1 RES1   0.0000
    25 C25     -0.9816 -11.6818 -13.2866   C.3       1 RES1   0.0000
    26 H26     -0.5185 -12.1926 -12.4437   H         1 RES1   0.0000
    27 H27     -0.5282 -12.0277 -14.2144   H         1 RES1   0.0000
    28 C28     -3.1541 -11.2690 -14.4100   C.3       1 RES1   0.0000
    29 H29     -2.7652 -11.6150 -15.3666   H         1 RES1   0.0000
    30 H30     -4.2194 -11.4871 -14.3510   H         1 RES1   0.0000
    31 C31     -2.9453  -9.7662 -14.3003   C.3       1 RES1   0.0000
    32 H32     -3.4126  -9.2784 -15.1544   H         1 RES1   0.0000
    33 H33     -3.4066  -9.4087 -13.3809   H         1 RES1   0.0000
    34 C34     -0.7693 -10.1843 -13.1484   C.3       1 RES1   0.0000
    35 H35     -1.1800  -9.8539 -12.1954   H         1 RES1   0.0000
    36 H36      0.2986  -9.9730 -13.1762   H         1 RES1   0.0000
    37 N37     -2.4462 -11.9824 -13.3066   N.4       1 RES1   1.0000
    38 H38     -2.8505 -11.6967 -12.4206   H         1 RES1   0.0000
    39 H39     -2.5729 -12.9820 -13.4297   H         1 RES1   0.0000
    40 N40      1.1204  -4.2311 -14.9697   N.ar      1 RES1   0.0000
    41 C41      0.2729  -3.4391 -17.4122   C.ar      1 RES1   0.0000
    42 H42     -0.0691  -3.1305 -18.3946   H         1 RES1   0.0000
    43 N43      2.7453  -2.6186 -15.1035   N.pl3     1 RES1   0.0000
    44 H44      2.9896  -2.8679 -14.1451   H         1 RES1   0.0000
    45 C45     -0.4048  -4.4607 -16.7778   C.ar      1 RES1   0.0000
    46 H46     -1.2618  -4.9437 -17.2355   H         1 RES1   0.0000
    47 C47      1.6980  -3.2405 -15.6683   C.ar      1 RES1   0.0000
    48 N48      1.3280  -2.8070 -16.8822   N.ar      1 RES1   0.0000
    49 C49      3.5189  -1.5611 -15.7539   C.3       1 RES1   0.0000
    50 H50      2.8372  -0.7382 -16.0193   H         1 RES1   0.0000
    51 C51      4.2089  -2.0422 -17.0152   C.ar      1 RES1   0.0000
    52 C52      4.5348  -1.0429 -14.7427   C.3       1 RES1   0.0000
    53 H53      5.1701  -0.2808 -15.1893   H         1 RES1   0.0000
    54 H54      4.0353  -0.6051 -13.8810   H         1 RES1   0.0000
    55 H55      5.1724  -1.8509 -14.3901   H         1 RES1   0.0000
    56 C56      5.4887  -2.9312 -19.3243   C.ar      1 RES1   0.0000
    57 H57      5.9867  -3.2781 -20.2236   H         1 RES1   0.0000
    58 C58      5.4519  -2.6547 -16.9471   C.ar      1 RES1   0.0000
    59 H59      5.9312  -2.7885 -15.9830   H         1 RES1   0.0000
    60 C60      3.6184  -1.8802 -18.2610   C.ar      1 RES1   0.0000
    61 H61      2.6475  -1.4024 -18.3394   H         1 RES1   0.0000
    62 C62      4.2556  -2.3229 -19.4079   C.ar      1 RES1   0.0000
    63 H63      3.7818  -2.1901 -20.3748   H         1 RES1   0.0000
    64 C64      6.0872  -3.0975 -18.0948   C.ar      1 RES1   0.0000
    65 H65      7.0583  -3.5763 -18.0253   H         1 RES1   0.0000
@<TRIPOS>BOND
     1     1     5   ar
     2     1     6   ar
     3     1     2    1
     4     3     8   ar
     5     3     9   ar
     6     3     4    1
     7     5     9   ar
     8     5    11    1
     9     6     8   ar
    10     6     7    1
    11     8    12    1
    12     9    10    1
    13    11    20    2
    14    11    23    1
    15    13    14    1
    16    13    23   am
    17    13    24    1
    18    14    31    1
    19    14    34    1
    20    14    15    1
    21    16    24    1
    22    16    17    1
    23    16    18    1
    24    16    19    1
    25    20    21    1
    26    20    24    1
    27    21    40   ar
    28    21    45   ar
    29    22    23    2
    30    25    34    1
    31    25    37    1
    32    25    26    1
    33    25    27    1
    34    28    31    1
    35    28    37    1
    36    28    29    1
    37    28    30    1
    38    31    32    1
    39    31    33    1
    40    34    35    1
    41    34    36    1
    42    37    38    1
    43    37    39    1
    44    40    47   ar
    45    41    45   ar
    46    41    48   ar
    47    41    42    1
    48    43    47    1
    49    43    49    1
    50    43    44    1
    51    45    46    1
    52    47    48   ar
    53    49    51    1
    54    49    52    1
    55    49    50    1
    56    51    58   ar
    57    51    60   ar
    58    52    53    1
    59    52    54    1
    60    52    55    1
    61    56    62   ar
    62    56    64   ar
    63    56    57    1
    64    58    64   ar
    65    58    59    1
    66    60    62   ar
    67    60    61    1
    68    62    63    1
    69    64    65    1
@<TRIPOS>SUBSTRUCTURE
     1 RES1        1 GROUP             0 ****  ****    0  
@<TRIPOS>MOLECULE
LIGAND_00409
    65    69     1     0     0
SMALL
USER_CHARGES
****
Generated from the CSD

@<TRIPOS>ATOM
     1 C1      -0.8804  -3.5621 -15.3552   C.ar      1 RES1   0.0000
     2 H2      -1.9446  -3.7401 -15.2447   H         1 RES1   0.0000
     3 C3       1.8254  -3.0686 -15.6138   C.ar      1 RES1   0.0000
     4 H4       2.8865  -2.8643 -15.7113   H         1 RES1   0.0000
     5 C5       0.0215  -4.5556 -14.9859   C.ar      1 RES1   0.0000
     6 C6      -0.4476  -2.3471 -15.8561   C.ar      1 RES1   0.0000
     7 H7      -1.1585  -1.5823 -16.1503   H         1 RES1   0.0000
     8 C8       0.8971  -2.1321 -15.9695   C.ar      1 RES1   0.0000
     9 C9       1.3794  -4.2837 -15.1274   C.ar      1 RES1   0.0000
    10 H10      2.1087  -5.0384 -14.8556   H         1 RES1   0.0000
    11 C11     -0.4321  -5.8753 -14.4383   C.2       1 RES1   0.0000
    12 F12      1.3301  -0.9373 -16.4563   F         1 RES1   0.0000
    13 N13     -1.2406  -7.9410 -14.1570   N.am      1 RES1   0.0000
    14 C14     -1.5106  -9.4109 -14.3092   C.3       1 RES1   0.0000
    15 H15     -1.2763  -9.6930 -15.3346   H         1 RES1   0.0000
    16 C16     -1.9231  -7.7575 -11.8104   C.3       1 RES1   0.0000
    17 H17     -1.8609  -7.0480 -10.9879   H         1 RES1   0.0000
    18 H18     -2.9528  -7.7796 -12.1612   H         1 RES1   0.0000
    19 H19     -1.6740  -8.7447 -11.4269   H         1 RES1   0.0000
    20 C20     -0.6162  -6.0901 -13.1114   C.2       1 RES1   0.0000
    21 C21     -0.4636  -5.1243 -11.9931   C.ar      1 RES1   0.0000
    22 O22     -0.7692  -7.3578 -16.3387   O.2       1 RES1   0.0000
    23 C23     -0.8068  -7.0721 -15.1490   C.2       1 RES1   0.0000
    24 N24     -1.0134  -7.3785 -12.8921   N.3       1 RES1   0.0000
    25 C25     -0.8533 -11.7127 -13.5367   C.3       1 RES1   0.0000
    26 H26     -0.2315 -12.2591 -12.8291   H         1 RES1   0.0000
    27 H27     -0.5989 -12.0141 -14.5518   H         1 RES1   0.0000
    28 C28     -3.2063 -11.2591 -14.1768   C.3       1 RES1   0.0000
    29 H29     -3.0210 -11.5595 -15.2070   H         1 RES1   0.0000
    30 H30     -4.2386 -11.4843 -13.9130   H         1 RES1   0.0000
    31 C31     -2.9724  -9.7618 -14.0436   C.3       1 RES1   0.0000
    32 H32     -3.6007  -9.2379 -14.7623   H         1 RES1   0.0000
    33 H33     -3.2362  -9.4485 -13.0345   H         1 RES1   0.0000
    34 C34     -0.6102 -10.2220 -13.3766   C.3       1 RES1   0.0000
    35 H35     -0.8177  -9.9371 -12.3462   H         1 RES1   0.0000
    36 H36      0.4309 -10.0049 -13.6106   H         1 RES1   0.0000
    37 N37     -2.2930 -12.0186 -13.2731   N.4       1 RES1   1.0000
    38 H38     -2.5080 -11.7752 -12.3115   H         1 RES1   0.0000
    39 H39     -2.4468 -13.0121 -13.4131   H         1 RES1   0.0000
    40 N40      0.4450  -5.4293 -11.0534   N.ar      1 RES1   0.0000
    41 C41     -1.0003  -3.1569 -10.8108   C.ar      1 RES1   0.0000
    42 H42     -1.5797  -2.2437 -10.7230   H         1 RES1   0.0000
    43 N43      1.4669  -4.8910  -9.0724   N.pl3     1 RES1   0.0000
    44 H44      1.9330  -5.7961  -9.1342   H         1 RES1   0.0000
    45 C45     -1.2245  -3.9678 -11.9051   C.ar      1 RES1   0.0000
    46 H46     -1.9625  -3.7136 -12.6587   H         1 RES1   0.0000
    47 C47      0.5736  -4.5766 -10.0241   C.ar      1 RES1   0.0000
    48 N48     -0.1086  -3.4351  -9.8510   N.ar      1 RES1   0.0000
    49 C49      1.7673  -4.0440  -7.9183   C.3       1 RES1   0.0000
    50 H50      0.8362  -3.8699  -7.3570   H         1 RES1   0.0000
    51 C51      2.3460  -2.7019  -8.3214   C.ar      1 RES1   0.0000
    52 C52      2.7374  -4.8076  -7.0244   C.3       1 RES1   0.0000
    53 H53      3.1269  -4.1638  -6.2386   H         1 RES1   0.0000
    54 H54      2.2451  -5.6562  -6.5542   H         1 RES1   0.0000
    55 H55      3.5791  -5.1824  -7.6031   H         1 RES1   0.0000
    56 C56      3.4234  -0.2422  -9.0625   C.ar      1 RES1   0.0000
    57 H57      3.8428   0.7156  -9.3519   H         1 RES1   0.0000
    58 C58      3.7080  -2.5618  -8.5452   C.ar      1 RES1   0.0000
    59 H59      4.3612  -3.4204  -8.4297   H         1 RES1   0.0000
    60 C60      1.5324  -1.5874  -8.4728   C.ar      1 RES1   0.0000
    61 H61      0.4645  -1.6723  -8.3014   H         1 RES1   0.0000
    62 C62      2.0693  -0.3655  -8.8416   C.ar      1 RES1   0.0000
    63 H63      1.4212   0.4968  -8.9569   H         1 RES1   0.0000
    64 C64      4.2431  -1.3394  -8.9146   C.ar      1 RES1   0.0000
    65 H65      5.3099  -1.2459  -9.0880   H         1 RES1   0.0000
@<TRIPOS>BOND
     1     1     5   ar
     2     1     6   ar
     3     1     2    1
     4     3     8   ar
     5     3     9   ar
     6     3     4    1
     7     5     9   ar
     8     5    11    1
     9     6     8   ar
    10     6     7    1
    11     8    12    1
    12     9    10    1
    13    11    20    2
    14    11    23    1
    15    13    14    1
    16    13    23   am
    17    13    24    1
    18    14    31    1
    19    14    34    1
    20    14    15    1
    21    16    24    1
    22    16    17    1
    23    16    18    1
    24    16    19    1
    25    20    21    1
    26    20    24    1
    27    21    40   ar
    28    21    45   ar
    29    22    23    2
    30    25    34    1
    31    25    37    1
    32    25    26    1
    33    25    27    1
    34    28    31    1
    35    28    37    1
    36    28    29    1
    37    28    30    1
    38    31    32    1
    39    31    33    1
    40    34    35    1
    41    34    36    1
    42    37    38    1
    43    37    39    1
    44    40    47   ar
    45    41    45   ar
    46    41    48   ar
    47    41    42    1
    48    43    47    1
    49    43    49    1
    50    43    44    1
    51    45    46    1
    52    47    48   ar
    53    49    51    1
    54    49    52    1
    55    49    50    1
    56    51    58   ar
    57    51    60   ar
    58    52    53    1
    59    52    54    1
    60    52    55    1
    61    56    62   ar
    62    56    64   ar
    63    56    57    1
    64    58    64   ar
    65    58    59    1
    66    60    62   ar
    67    60    61    1
    68    62    63    1
    69    64    65    1
@<TRIPOS>SUBSTRUCTURE
     1 RES1        1 GROUP             0 ****  ****    0  
@<TRIPOS>MOLECULE
LIGAND_00410
    65    69     1     0     0
SMALL
USER_CHARGES
****
Generated from the CSD

@<TRIPOS>ATOM
     1 C1       0.3359  -4.0444 -15.7323   C.ar      1 RES1   0.0000
     2 H2      -0.3718  -4.4422 -16.4516   H         1 RES1   0.0000
     3 C3       2.1186  -2.9892 -13.9046   C.ar      1 RES1   0.0000
     4 H4       2.8149  -2.5644 -13.1891   H         1 RES1   0.0000
     5 C5       0.5126  -4.6946 -14.5146   C.ar      1 RES1   0.0000
     6 C6       1.0410  -2.8953 -16.0437   C.ar      1 RES1   0.0000
     7 H7       0.9036  -2.4008 -16.9995   H         1 RES1   0.0000
     8 C8       1.9135  -2.3965 -15.1178   C.ar      1 RES1   0.0000
     9 C9       1.4177  -4.1446 -13.6113   C.ar      1 RES1   0.0000
    10 H10      1.5844  -4.6299 -12.6564   H         1 RES1   0.0000
    11 C11     -0.2467  -5.9380 -14.1617   C.2       1 RES1   0.0000
    12 F12      2.6063  -1.2636 -15.4151   F         1 RES1   0.0000
    13 N13     -1.2406  -7.9410 -14.1570   N.am      1 RES1   0.0000
    14 C14     -1.5106  -9.4109 -14.3092   C.3       1 RES1   0.0000
    15 H15     -0.9490  -9.7701 -15.1703   H         1 RES1   0.0000
    16 C16     -2.9634  -7.4981 -12.4712   C.3       1 RES1   0.0000
    17 H17     -3.2161  -6.7696 -11.7036   H         1 RES1   0.0000
    18 H18     -3.7034  -7.4237 -13.2653   H         1 RES1   0.0000
    19 H19     -3.0343  -8.4914 -12.0331   H         1 RES1   0.0000
    20 C20     -1.0688  -6.0097 -13.0848   C.2       1 RES1   0.0000
    21 C21     -1.4087  -4.9383 -12.1137   C.ar      1 RES1   0.0000
    22 O22      0.2750  -7.5989 -15.8623   O.2       1 RES1   0.0000
    23 C23     -0.3156  -7.1911 -14.8707   C.2       1 RES1   0.0000
    24 N24     -1.6169  -7.2574 -12.9912   N.3       1 RES1   0.0000
    25 C25     -1.2721 -11.6680 -13.2251   C.3       1 RES1   0.0000
    26 H26     -0.9608 -12.1784 -12.3148   H         1 RES1   0.0000
    27 H27     -0.6961 -12.0463 -14.0684   H         1 RES1   0.0000
    28 C28     -3.2328 -11.2030 -14.6712   C.3       1 RES1   0.0000
    29 H29     -2.7163 -11.5797 -15.5528   H         1 RES1   0.0000
    30 H30     -4.3020 -11.3838 -14.7719   H         1 RES1   0.0000
    31 C31     -2.9887  -9.7063 -14.5509   C.3       1 RES1   0.0000
    32 H32     -3.3032  -9.2190 -15.4726   H         1 RES1   0.0000
    33 H33     -3.5708  -9.3164 -13.7172   H         1 RES1   0.0000
    34 C34     -1.0290 -10.1762 -13.0760   C.3       1 RES1   0.0000
    35 H35     -1.5671  -9.8145 -12.2011   H         1 RES1   0.0000
    36 H36      0.0378 -10.0017 -12.9440   H         1 RES1   0.0000
    37 N37     -2.7266 -11.9193 -13.4636   N.4       1 RES1   1.0000
    38 H38     -3.2498 -11.6036 -12.6532   H         1 RES1   0.0000
    39 H39     -2.8693 -12.9161 -13.5911   H         1 RES1   0.0000
    40 N40     -1.0980  -5.1692 -10.8285   N.ar      1 RES1   0.0000
    41 C41     -2.3055  -2.8456 -11.5027   C.ar      1 RES1   0.0000
    42 H42     -2.7847  -1.9129 -11.7813   H         1 RES1   0.0000
    43 N43     -1.1330  -4.4573  -8.6489   N.pl3     1 RES1   0.0000
    44 H44     -1.1790  -5.4213  -8.3188   H         1 RES1   0.0000
    45 C45     -2.0280  -3.7587 -12.5000   C.ar      1 RES1   0.0000
    46 H46     -2.2846  -3.5636 -13.5360   H         1 RES1   0.0000
    47 C47     -1.4239  -4.2187  -9.9377   C.ar      1 RES1   0.0000
    48 N48     -2.0171  -3.0474 -10.2104   N.ar      1 RES1   0.0000
    49 C49     -0.8158  -3.4145  -7.6736   C.3       1 RES1   0.0000
    50 H50     -1.6919  -2.7568  -7.5633   H         1 RES1   0.0000
    51 C51      0.3712  -2.5707  -8.0952   C.ar      1 RES1   0.0000
    52 C52     -0.5498  -4.0970  -6.3369   C.3       1 RES1   0.0000
    53 H53     -0.3392  -3.3618  -5.5631   H         1 RES1   0.0000
    54 H54     -1.4112  -4.6825  -6.0225   H         1 RES1   0.0000
    55 H55      0.3055  -4.7655  -6.4104   H         1 RES1   0.0000
    56 C56      2.5580  -1.0325  -8.8774   C.ar      1 RES1   0.0000
    57 H57      3.4093  -0.4330  -9.1826   H         1 RES1   0.0000
    58 C58      1.3819  -3.1171  -8.8729   C.ar      1 RES1   0.0000
    59 H59      1.3199  -4.1560  -9.1795   H         1 RES1   0.0000
    60 C60      0.4758  -1.2401  -7.7136   C.ar      1 RES1   0.0000
    61 H61     -0.3014  -0.7915  -7.1039   H         1 RES1   0.0000
    62 C62      1.5632  -0.4767  -8.1035   C.ar      1 RES1   0.0000
    63 H63      1.6313   0.5622  -7.7983   H         1 RES1   0.0000
    64 C64      2.4681  -2.3520  -9.2624   C.ar      1 RES1   0.0000
    65 H65      3.2497  -2.7929  -9.8721   H         1 RES1   0.0000
@<TRIPOS>BOND
     1     1     5   ar
     2     1     6   ar
     3     1     2    1
     4     3     8   ar
     5     3     9   ar
     6     3     4    1
     7     5     9   ar
     8     5    11    1
     9     6     8   ar
    10     6     7    1
    11     8    12    1
    12     9    10    1
    13    11    20    2
    14    11    23    1
    15    13    14    1
    16    13    23   am
    17    13    24    1
    18    14    31    1
    19    14    34    1
    20    14    15    1
    21    16    24    1
    22    16    17    1
    23    16    18    1
    24    16    19    1
    25    20    21    1
    26    20    24    1
    27    21    40   ar
    28    21    45   ar
    29    22    23    2
    30    25    34    1
    31    25    37    1
    32    25    26    1
    33    25    27    1
    34    28    31    1
    35    28    37    1
    36    28    29    1
    37    28    30    1
    38    31    32    1
    39    31    33    1
    40    34    35    1
    41    34    36    1
    42    37    38    1
    43    37    39    1
    44    40    47   ar
    45    41    45   ar
    46    41    48   ar
    47    41    42    1
    48    43    47    1
    49    43    49    1
    50    43    44    1
    51    45    46    1
    52    47    48   ar
    53    49    51    1
    54    49    52    1
    55    49    50    1
    56    51    58   ar
    57    51    60   ar
    58    52    53    1
    59    52    54    1
    60    52    55    1
    61    56    62   ar
    62    56    64   ar
    63    56    57    1
    64    58    64   ar
    65    58    59    1
    66    60    62   ar
    67    60    61    1
    68    62    63    1
    69    64    65    1
@<TRIPOS>SUBSTRUCTURE
     1 RES1        1 GROUP             0 ****  ****    0  
@<TRIPOS>MOLECULE
LIGAND_00411
    65    69     1     0     0
SMALL
USER_CHARGES
****
Generated from the CSD

@<TRIPOS>ATOM
     1 C1      -0.1332  -3.9647 -15.8327   C.ar      1 RES1   0.0000
     2 H2      -0.9314  -4.3888 -16.4321   H         1 RES1   0.0000
     3 C3       1.8777  -2.8435 -14.3059   C.ar      1 RES1   0.0000
     4 H4       2.6629  -2.3929 -13.7077   H         1 RES1   0.0000
     5 C5       0.2780  -4.6219 -14.6769   C.ar      1 RES1   0.0000
     6 C6       0.4519  -2.7759 -16.2315   C.ar      1 RES1   0.0000
     7 H7       0.1311  -2.2758 -17.1393   H         1 RES1   0.0000
     8 C8       1.4422  -2.2452 -15.4538   C.ar      1 RES1   0.0000
     9 C9       1.2942  -4.0381 -13.9257   C.ar      1 RES1   0.0000
    10 H10      1.6431  -4.5274 -13.0235   H         1 RES1   0.0000
    11 C11     -0.3487  -5.9083 -14.2301   C.2       1 RES1   0.0000
    12 F12      2.0183  -1.0734 -15.8371   F         1 RES1   0.0000
    13 N13     -1.1782  -7.9802 -14.0919   N.am      1 RES1   0.0000
    14 C14     -1.3436  -9.4704 -14.1852   C.3       1 RES1   0.0000
    15 H15     -0.8273  -9.8122 -15.0810   H         1 RES1   0.0000
    16 C16     -2.7820  -7.6189 -12.2744   C.3       1 RES1   0.0000
    17 H17     -3.0178  -6.8977 -11.4946   H         1 RES1   0.0000
    18 H18     -3.5925  -7.6098 -13.0002   H         1 RES1   0.0000
    19 H19     -2.7426  -8.6075 -11.8220   H         1 RES1   0.0000
    20 C20     -1.0688  -6.0097 -13.0848   C.2       1 RES1   0.0000
    21 C21     -1.4087  -4.9383 -12.1137   C.ar      1 RES1   0.0000
    22 O22      0.1566  -7.5755 -15.9295   O.2       1 RES1   0.0000
    23 C23     -0.3785  -7.1840 -14.9005   C.2       1 RES1   0.0000
    24 N24     -1.5073  -7.2922 -12.9145   N.3       1 RES1   0.0000
    25 C25     -0.8420 -11.6684 -13.0699   C.3       1 RES1   0.0000
    26 H26     -0.4190 -12.1254 -12.1765   H         1 RES1   0.0000
    27 H27     -0.3085 -12.0276 -13.9487   H         1 RES1   0.0000
    28 C28     -2.9439 -11.3985 -14.3588   C.3       1 RES1   0.0000
    29 H29     -2.4727 -11.7618 -15.2708   H         1 RES1   0.0000
    30 H30     -4.0003 -11.6631 -14.3658   H         1 RES1   0.0000
    31 C31     -2.8088  -9.8846 -14.2958   C.3       1 RES1   0.0000
    32 H32     -3.2342  -9.4512 -15.1997   H         1 RES1   0.0000
    33 H33     -3.3501  -9.5146 -13.4263   H         1 RES1   0.0000
    34 C34     -0.7053 -10.1586 -12.9780   C.3       1 RES1   0.0000
    35 H35     -1.1973  -9.8120 -12.0704   H         1 RES1   0.0000
    36 H36      0.3518  -9.8994 -12.9394   H         1 RES1   0.0000
    37 N37     -2.2869 -12.0367 -13.1803   N.4       1 RES1   1.0000
    38 H38     -2.7659 -11.7369 -12.3372   H         1 RES1   0.0000
    39 H39     -2.3611 -13.0449 -13.2712   H         1 RES1   0.0000
    40 N40     -2.7044  -4.6015 -12.0170   N.ar      1 RES1   0.0000
    41 C41     -0.8828  -3.3107 -10.4916   C.ar      1 RES1   0.0000
    42 H42     -0.1470  -2.8011  -9.8782   H         1 RES1   0.0000
    43 N43     -4.3133  -3.2636 -11.0790   N.pl3     1 RES1   0.0000
    44 H44     -4.6663  -2.9476 -10.1758   H         1 RES1   0.0000
    45 C45     -0.4438  -4.3003 -11.3480   C.ar      1 RES1   0.0000
    46 H46      0.6060  -4.5644 -11.4202   H         1 RES1   0.0000
    47 C47     -3.0204  -3.6162 -11.1612   C.ar      1 RES1   0.0000
    48 N48     -2.1657  -2.9439 -10.3765   N.ar      1 RES1   0.0000
    49 C49     -5.2623  -3.3640 -12.1875   C.3       1 RES1   0.0000
    50 H50     -5.3608  -4.4229 -12.4725   H         1 RES1   0.0000
    51 C51     -4.8159  -2.5764 -13.4037   C.ar      1 RES1   0.0000
    52 C52     -6.6136  -2.8687 -11.6856   C.3       1 RES1   0.0000
    53 H53     -7.3690  -2.9519 -12.4642   H         1 RES1   0.0000
    54 H54     -6.9455  -3.4503 -10.8281   H         1 RES1   0.0000
    55 H55     -6.5523  -1.8252 -11.3837   H         1 RES1   0.0000
    56 C56     -3.9881  -1.1193 -15.6290   C.ar      1 RES1   0.0000
    57 H57     -3.6652  -0.5523 -16.4958   H         1 RES1   0.0000
    58 C58     -4.0469  -1.4309 -13.2566   C.ar      1 RES1   0.0000
    59 H59     -3.7652  -1.0987 -12.2629   H         1 RES1   0.0000
    60 C60     -5.1655  -2.9786 -14.6854   C.ar      1 RES1   0.0000
    61 H61     -5.7677  -3.8701 -14.8253   H         1 RES1   0.0000
    62 C62     -4.7530  -2.2535 -15.7906   C.ar      1 RES1   0.0000
    63 H63     -5.0333  -2.5801 -16.7865   H         1 RES1   0.0000
    64 C64     -3.6348  -0.7076 -14.3628   C.ar      1 RES1   0.0000
    65 H65     -3.0323   0.1851 -14.2318   H         1 RES1   0.0000
@<TRIPOS>BOND
     1     1     5   ar
     2     1     6   ar
     3     1     2    1
     4     3     8   ar
     5     3     9   ar
     6     3     4    1
     7     5     9   ar
     8     5    11    1
     9     6     8   ar
    10     6     7    1
    11     8    12    1
    12     9    10    1
    13    11    20    2
    14    11    23    1
    15    13    14    1
    16    13    23   am
    17    13    24    1
    18    14    31    1
    19    14    34    1
    20    14    15    1
    21    16    24    1
    22    16    17    1
    23    16    18    1
    24    16    19    1
    25    20    21    1
    26    20    24    1
    27    21    40   ar
    28    21    45   ar
    29    22    23    2
    30    25    34    1
    31    25    37    1
    32    25    26    1
    33    25    27    1
    34    28    31    1
    35    28    37    1
    36    28    29    1
    37    28    30    1
    38    31    32    1
    39    31    33    1
    40    34    35    1
    41    34    36    1
    42    37    38    1
    43    37    39    1
    44    40    47   ar
    45    41    45   ar
    46    41    48   ar
    47    41    42    1
    48    43    47    1
    49    43    49    1
    50    43    44    1
    51    45    46    1
    52    47    48   ar
    53    49    51    1
    54    49    52    1
    55    49    50    1
    56    51    58   ar
    57    51    60   ar
    58    52    53    1
    59    52    54    1
    60    52    55    1
    61    56    62   ar
    62    56    64   ar
    63    56    57    1
    64    58    64   ar
    65    58    59    1
    66    60    62   ar
    67    60    61    1
    68    62    63    1
    69    64    65    1
@<TRIPOS>SUBSTRUCTURE
     1 RES1        1 GROUP             0 ****  ****    0  
@<TRIPOS>MOLECULE
LIGAND_00412
    65    69     1     0     0
SMALL
USER_CHARGES
****
Generated from the CSD

@<TRIPOS>ATOM
     1 C1      -1.0019  -4.1807 -11.6138   C.ar      1 RES1   0.0000
     2 H2      -0.4301  -4.9293 -11.0761   H         1 RES1   0.0000
     3 C3      -2.4245  -2.2431 -12.9752   C.ar      1 RES1   0.0000
     4 H4      -2.9758  -1.4743 -13.5065   H         1 RES1   0.0000
     5 C5      -1.4912  -4.4747 -12.8830   C.ar      1 RES1   0.0000
     6 C6      -1.2247  -2.9491 -11.0239   C.ar      1 RES1   0.0000
     7 H7      -0.8475  -2.7326 -10.0300   H         1 RES1   0.0000
     8 C8      -1.9296  -2.0107 -11.7237   C.ar      1 RES1   0.0000
     9 C9      -2.2065  -3.4828 -13.5479   C.ar      1 RES1   0.0000
    10 H10     -2.6076  -3.6812 -14.5353   H         1 RES1   0.0000
    11 C11     -1.2547  -5.8030 -13.5365   C.2       1 RES1   0.0000
    12 F12     -2.1479  -0.7953 -11.1519   F         1 RES1   0.0000
    13 N13     -1.1781  -7.9481 -14.1156   N.am      1 RES1   0.0000
    14 C14     -1.3639  -9.4349 -14.2223   C.3       1 RES1   0.0000
    15 H15     -0.8818  -9.7707 -15.1392   H         1 RES1   0.0000
    16 C16     -0.1164  -7.7266 -16.3963   C.3       1 RES1   0.0000
    17 H17      0.7222  -7.1637 -16.8010   H         1 RES1   0.0000
    18 H18      0.1851  -8.7686 -16.3111   H         1 RES1   0.0000
    19 H19     -0.9388  -7.6682 -17.1061   H         1 RES1   0.0000
    20 C20     -0.5870  -5.9122 -14.7311   C.2       1 RES1   0.0000
    21 C21      0.0604  -4.8376 -15.5265   C.ar      1 RES1   0.0000
    22 O22     -2.2453  -7.5340 -12.1709   O.2       1 RES1   0.0000
    23 C23     -1.6298  -7.1223 -13.1455   C.2       1 RES1   0.0000
    24 N24     -0.5185  -7.1938 -15.0941   N.pl3     1 RES1   0.0000
    25 C25     -0.8510 -11.6529 -13.1524   C.3       1 RES1   0.0000
    26 H26     -0.4039 -12.1262 -12.2796   H         1 RES1   0.0000
    27 H27     -0.3514 -12.0064 -14.0531   H         1 RES1   0.0000
    28 C28     -2.9915 -11.3425 -14.3667   C.3       1 RES1   0.0000
    29 H29     -2.5552 -11.6991 -15.2986   H         1 RES1   0.0000
    30 H30     -4.0505 -11.5951 -14.3416   H         1 RES1   0.0000
    31 C31     -2.8367  -9.8312 -14.2890   C.3       1 RES1   0.0000
    32 H32     -3.2869  -9.3812 -15.1726   H         1 RES1   0.0000
    33 H33     -3.3444  -9.4665 -13.3972   H         1 RES1   0.0000
    34 C34     -0.6937 -10.1460 -13.0460   C.3       1 RES1   0.0000
    35 H35     -1.1512  -9.8059 -12.1181   H         1 RES1   0.0000
    36 H36      0.3670  -9.8993 -13.0396   H         1 RES1   0.0000
    37 N37     -2.3030 -12.0035 -13.2191   N.4       1 RES1   1.0000
    38 H38     -2.7501 -11.7094 -12.3566   H         1 RES1   0.0000
    39 H39     -2.3919 -13.0095 -13.3203   H         1 RES1   0.0000
    40 N40     -0.0039  -4.9545 -16.8621   N.ar      1 RES1   0.0000
    41 C41      1.2879  -2.8409 -15.7779   C.ar      1 RES1   0.0000
    42 H42      1.7995  -1.9922 -15.3360   H         1 RES1   0.0000
    43 N43      0.5551  -4.1295 -18.9273   N.pl3     1 RES1   0.0000
    44 H44      0.1078  -4.9606 -19.3139   H         1 RES1   0.0000
    45 C45      0.7132  -3.7678 -14.9318   C.ar      1 RES1   0.0000
    46 H46      0.7719  -3.6654 -13.8533   H         1 RES1   0.0000
    47 C47      0.6002  -4.0026 -17.5915   C.ar      1 RES1   0.0000
    48 N48      1.2501  -2.9313 -17.1136   N.ar      1 RES1   0.0000
    49 C49      1.1625  -3.1820 -19.8616   C.3       1 RES1   0.0000
    50 H50      2.0703  -2.7642 -19.3995   H         1 RES1   0.0000
    51 C51      0.2304  -2.0393 -20.2136   C.ar      1 RES1   0.0000
    52 C52      1.5663  -3.9579 -21.1098   C.3       1 RES1   0.0000
    53 H53      1.9846  -3.2909 -21.8607   H         1 RES1   0.0000
    54 H54      2.3138  -4.7120 -20.8725   H         1 RES1   0.0000
    55 H55      0.7050  -4.4601 -21.5454   H         1 RES1   0.0000
    56 C56     -1.4881   0.0520 -20.8721   C.ar      1 RES1   0.0000
    57 H57     -2.1579   0.8663 -21.1279   H         1 RES1   0.0000
    58 C58     -0.6453  -2.1500 -21.2841   C.ar      1 RES1   0.0000
    59 H59     -0.6604  -3.0618 -21.8719   H         1 RES1   0.0000
    60 C60      0.2323  -0.8612 -19.4794   C.ar      1 RES1   0.0000
    61 H61      0.9096  -0.7508 -18.6390   H         1 RES1   0.0000
    62 C62     -0.6227   0.1773 -19.8077   C.ar      1 RES1   0.0000
    63 H63     -0.6106   1.0921 -19.2245   H         1 RES1   0.0000
    64 C64     -1.5000  -1.1108 -21.6104   C.ar      1 RES1   0.0000
    65 H65     -2.1804  -1.2130 -22.4492   H         1 RES1   0.0000
@<TRIPOS>BOND
     1     1     5   ar
     2     1     6   ar
     3     1     2    1
     4     3     8   ar
     5     3     9   ar
     6     3     4    1
     7     5     9   ar
     8     5    11    1
     9     6     8   ar
    10     6     7    1
    11     8    12    1
    12     9    10    1
    13    11    20    2
    14    11    23    1
    15    13    14    1
    16    13    23   am
    17    13    24    1
    18    14    31    1
    19    14    34    1
    20    14    15    1
    21    16    24    1
    22    16    17    1
    23    16    18    1
    24    16    19    1
    25    20    21    1
    26    20    24    1
    27    21    40   ar
    28    21    45   ar
    29    22    23    2
    30    25    34    1
    31    25    37    1
    32    25    26    1
    33    25    27    1
    34    28    31    1
    35    28    37    1
    36    28    29    1
    37    28    30    1
    38    31    32    1
    39    31    33    1
    40    34    35    1
    41    34    36    1
    42    37    38    1
    43    37    39    1
    44    40    47   ar
    45    41    45   ar
    46    41    48   ar
    47    41    42    1
    48    43    47    1
    49    43    49    1
    50    43    44    1
    51    45    46    1
    52    47    48   ar
    53    49    51    1
    54    49    52    1
    55    49    50    1
    56    51    58   ar
    57    51    60   ar
    58    52    53    1
    59    52    54    1
    60    52    55    1
    61    56    62   ar
    62    56    64   ar
    63    56    57    1
    64    58    64   ar
    65    58    59    1
    66    60    62   ar
    67    60    61    1
    68    62    63    1
    69    64    65    1
@<TRIPOS>SUBSTRUCTURE
     1 RES1        1 GROUP             0 ****  ****    0  
@<TRIPOS>MOLECULE
LIGAND_00413
    65    69     1     0     0
SMALL
USER_CHARGES
****
Generated from the CSD

@<TRIPOS>ATOM
     1 C1      -1.4350  -3.4526 -15.0985   C.ar      1 RES1   0.0000
     2 H2      -2.4253  -3.6379 -14.6967   H         1 RES1   0.0000
     3 C3       1.0898  -2.9418 -16.0966   C.ar      1 RES1   0.0000
     4 H4       2.0812  -2.7310 -16.4837   H         1 RES1   0.0000
     5 C5      -0.4804  -4.4646 -15.0596   C.ar      1 RES1   0.0000
     6 C6      -1.1457  -2.2104 -15.6348   C.ar      1 RES1   0.0000
     7 H7      -1.8995  -1.4308 -15.6694   H         1 RES1   0.0000
     8 C8       0.1128  -1.9876 -16.1181   C.ar      1 RES1   0.0000
     9 C9       0.7837  -4.1834 -15.5704   C.ar      1 RES1   0.0000
    10 H10      1.5486  -4.9514 -15.5618   H         1 RES1   0.0000
    11 C11     -0.7779  -5.8140 -14.4784   C.2       1 RES1   0.0000
    12 F12      0.4061  -0.7664 -16.6420   F         1 RES1   0.0000
    13 N13     -1.0758  -7.9799 -14.0751   N.am      1 RES1   0.0000
    14 C14     -1.1216  -9.4800 -14.1393   C.3       1 RES1   0.0000
    15 H15     -0.8024  -9.7855 -15.1346   H         1 RES1   0.0000
    16 C16     -1.5283  -7.8834 -11.5924   C.3       1 RES1   0.0000
    17 H17     -2.0813  -7.2262 -10.9245   H         1 RES1   0.0000
    18 H18     -2.0768  -8.8193 -11.6771   H         1 RES1   0.0000
    19 H19     -0.5631  -8.0958 -11.1376   H         1 RES1   0.0000
    20 C20     -1.1594  -5.9688 -13.1688   C.2       1 RES1   0.0000
    21 C21     -1.4160  -4.9157 -12.1531   C.ar      1 RES1   0.0000
    22 O22     -0.4340  -7.4929 -16.1830   O.2       1 RES1   0.0000
    23 C23     -0.7294  -7.1170 -15.0562   C.2       1 RES1   0.0000
    24 N24     -1.3553  -7.2616 -12.9057   N.pl3     1 RES1   0.0000
    25 C25     -0.1720 -11.6083 -13.1929   C.3       1 RES1   0.0000
    26 H26      0.4900 -12.0129 -12.4287   H         1 RES1   0.0000
    27 H27      0.1695 -11.9292 -14.1759   H         1 RES1   0.0000
    28 C28     -2.5344 -11.5478 -13.9461   C.3       1 RES1   0.0000
    29 H29     -2.2607 -11.8789 -14.9468   H         1 RES1   0.0000
    30 H30     -3.5338 -11.9073 -13.7054   H         1 RES1   0.0000
    31 C31     -2.5273 -10.0271 -13.9039   C.3       1 RES1   0.0000
    32 H32     -3.1919  -9.6463 -14.6780   H         1 RES1   0.0000
    33 H33     -2.8795  -9.6962 -12.9280   H         1 RES1   0.0000
    34 C34     -0.1561 -10.0912 -13.1231   C.3       1 RES1   0.0000
    35 H35     -0.4494  -9.7786 -12.1220   H         1 RES1   0.0000
    36 H36      0.8519  -9.7366 -13.3333   H         1 RES1   0.0000
    37 N37     -1.5622 -12.1078 -12.9618   N.4       1 RES1   1.0000
    38 H38     -1.8538 -11.8415 -12.0268   H         1 RES1   0.0000
    39 H39     -1.5632 -13.1197 -13.0412   H         1 RES1   0.0000
    40 N40     -0.5363  -3.9033 -12.0992   N.ar      1 RES1   0.0000
    41 C41     -2.6224  -3.9386 -10.3792   C.ar      1 RES1   0.0000
    42 H42     -3.4652  -3.9562  -9.6960   H         1 RES1   0.0000
    43 N43      0.1472  -1.9567 -11.0984   N.pl3     1 RES1   0.0000
    44 H44      0.9640  -2.0000 -11.7077   H         1 RES1   0.0000
    45 C45     -2.4995  -4.9698 -11.2885   C.ar      1 RES1   0.0000
    46 H46     -3.2150  -5.7847 -11.3233   H         1 RES1   0.0000
    47 C47     -0.7437  -2.9588 -11.1676   C.ar      1 RES1   0.0000
    48 N48     -1.7589  -2.9185 -10.2924   N.ar      1 RES1   0.0000
    49 C49      0.0523  -0.8390 -10.1596   C.3       1 RES1   0.0000
    50 H50     -0.4517  -1.1885  -9.2452   H         1 RES1   0.0000
    51 C51     -0.7323   0.3275 -10.7273   C.ar      1 RES1   0.0000
    52 C52      1.4716  -0.4154  -9.7999   C.3       1 RES1   0.0000
    53 H53      1.4605   0.3962  -9.0754   H         1 RES1   0.0000
    54 H54      2.0266  -1.2463  -9.3695   H         1 RES1   0.0000
    55 H55      2.0059  -0.0729 -10.6836   H         1 RES1   0.0000
    56 C56     -2.1614   2.4799 -11.7690   C.ar      1 RES1   0.0000
    57 H57     -2.7179   3.3179 -12.1754   H         1 RES1   0.0000
    58 C58     -0.1356   1.5713 -10.8750   C.ar      1 RES1   0.0000
    59 H59      0.8999   1.7072 -10.5807   H         1 RES1   0.0000
    60 C60     -2.0590   0.1807 -11.1083   C.ar      1 RES1   0.0000
    61 H61     -2.5475  -0.7820 -11.0005   H         1 RES1   0.0000
    62 C62     -2.7680   1.2514 -11.6263   C.ar      1 RES1   0.0000
    63 H63     -3.8042   1.1217 -11.9205   H         1 RES1   0.0000
    64 C64     -0.8458   2.6406 -11.3937   C.ar      1 RES1   0.0000
    65 H65     -0.3649   3.6067 -11.5049   H         1 RES1   0.0000
@<TRIPOS>BOND
     1     1     5   ar
     2     1     6   ar
     3     1     2    1
     4     3     8   ar
     5     3     9   ar
     6     3     4    1
     7     5     9   ar
     8     5    11    1
     9     6     8   ar
    10     6     7    1
    11     8    12    1
    12     9    10    1
    13    11    20    2
    14    11    23    1
    15    13    14    1
    16    13    23   am
    17    13    24    1
    18    14    31    1
    19    14    34    1
    20    14    15    1
    21    16    24    1
    22    16    17    1
    23    16    18    1
    24    16    19    1
    25    20    21    1
    26    20    24    1
    27    21    40   ar
    28    21    45   ar
    29    22    23    2
    30    25    34    1
    31    25    37    1
    32    25    26    1
    33    25    27    1
    34    28    31    1
    35    28    37    1
    36    28    29    1
    37    28    30    1
    38    31    32    1
    39    31    33    1
    40    34    35    1
    41    34    36    1
    42    37    38    1
    43    37    39    1
    44    40    47   ar
    45    41    45   ar
    46    41    48   ar
    47    41    42    1
    48    43    47    1
    49    43    49    1
    50    43    44    1
    51    45    46    1
    52    47    48   ar
    53    49    51    1
    54    49    52    1
    55    49    50    1
    56    51    58   ar
    57    51    60   ar
    58    52    53    1
    59    52    54    1
    60    52    55    1
    61    56    62   ar
    62    56    64   ar
    63    56    57    1
    64    58    64   ar
    65    58    59    1
    66    60    62   ar
    67    60    61    1
    68    62    63    1
    69    64    65    1
@<TRIPOS>SUBSTRUCTURE
     1 RES1        1 GROUP             0 ****  ****    0  
@<TRIPOS>MOLECULE
LIGAND_00414
    65    69     1     0     0
SMALL
USER_CHARGES
****
Generated from the CSD

@<TRIPOS>ATOM
     1 C1      -1.4349  -3.4526 -15.0985   C.ar      1 RES1   0.0000
     2 H2      -2.4252  -3.6379 -14.6966   H         1 RES1   0.0000
     3 C3       1.0899  -2.9418 -16.0966   C.ar      1 RES1   0.0000
     4 H4       2.0813  -2.7310 -16.4837   H         1 RES1   0.0000
     5 C5      -0.4804  -4.4646 -15.0596   C.ar      1 RES1   0.0000
     6 C6      -1.1456  -2.2104 -15.6348   C.ar      1 RES1   0.0000
     7 H7      -1.8993  -1.4308 -15.6694   H         1 RES1   0.0000
     8 C8       0.1129  -1.9876 -16.1181   C.ar      1 RES1   0.0000
     9 C9       0.7837  -4.1834 -15.5703   C.ar      1 RES1   0.0000
    10 H10      1.5486  -4.9515 -15.5618   H         1 RES1   0.0000
    11 C11     -0.7778  -5.8140 -14.4784   C.2       1 RES1   0.0000
    12 F12      0.4062  -0.7664 -16.6420   F         1 RES1   0.0000
    13 N13     -1.0758  -7.9799 -14.0751   N.am      1 RES1   0.0000
    14 C14     -1.1216  -9.4800 -14.1393   C.3       1 RES1   0.0000
    15 H15     -0.8025  -9.7855 -15.1346   H         1 RES1   0.0000
    16 C16     -1.5284  -7.8834 -11.5924   C.3       1 RES1   0.0000
    17 H17     -2.0813  -7.2262 -10.9245   H         1 RES1   0.0000
    18 H18     -2.0769  -8.8193 -11.6772   H         1 RES1   0.0000
    19 H19     -0.5631  -8.0958 -11.1376   H         1 RES1   0.0000
    20 C20     -1.1594  -5.9688 -13.1688   C.2       1 RES1   0.0000
    21 C21     -1.4160  -4.9157 -12.1531   C.ar      1 RES1   0.0000
    22 O22     -0.4340  -7.4929 -16.1830   O.2       1 RES1   0.0000
    23 C23     -0.7294  -7.1170 -15.0562   C.2       1 RES1   0.0000
    24 N24     -1.3554  -7.2616 -12.9057   N.pl3     1 RES1   0.0000
    25 C25     -0.1720 -11.6083 -13.1929   C.3       1 RES1   0.0000
    26 H26      0.4899 -12.0130 -12.4287   H         1 RES1   0.0000
    27 H27      0.1694 -11.9292 -14.1759   H         1 RES1   0.0000
    28 C28     -2.5345 -11.5477 -13.9461   C.3       1 RES1   0.0000
    29 H29     -2.2608 -11.8788 -14.9468   H         1 RES1   0.0000
    30 H30     -3.5339 -11.9073 -13.7055   H         1 RES1   0.0000
    31 C31     -2.5273 -10.0271 -13.9040   C.3       1 RES1   0.0000
    32 H32     -3.1919  -9.6462 -14.6780   H         1 RES1   0.0000
    33 H33     -2.8795  -9.6962 -12.9281   H         1 RES1   0.0000
    34 C34     -0.1561 -10.0912 -13.1231   C.3       1 RES1   0.0000
    35 H35     -0.4495  -9.7786 -12.1220   H         1 RES1   0.0000
    36 H36      0.8519  -9.7366 -13.3333   H         1 RES1   0.0000
    37 N37     -1.5623 -12.1078 -12.9618   N.4       1 RES1   1.0000
    38 H38     -1.8539 -11.8415 -12.0268   H         1 RES1   0.0000
    39 H39     -1.5633 -13.1197 -13.0412   H         1 RES1   0.0000
    40 N40     -0.5363  -3.9033 -12.0992   N.ar      1 RES1   0.0000
    41 C41     -2.6224  -3.9386 -10.3792   C.ar      1 RES1   0.0000
    42 H42     -3.4652  -3.9562  -9.6960   H         1 RES1   0.0000
    43 N43      0.1472  -1.9567 -11.0984   N.pl3     1 RES1   0.0000
    44 H44     -0.0346  -1.1998 -10.4393   H         1 RES1   0.0000
    45 C45     -2.4995  -4.9698 -11.2885   C.ar      1 RES1   0.0000
    46 H46     -3.2150  -5.7847 -11.3233   H         1 RES1   0.0000
    47 C47     -0.7437  -2.9588 -11.1676   C.ar      1 RES1   0.0000
    48 N48     -1.7589  -2.9185 -10.2924   N.ar      1 RES1   0.0000
    49 C49      1.3294  -1.8504 -11.9531   C.3       1 RES1   0.0000
    50 H50      1.1053  -2.3180 -12.9244   H         1 RES1   0.0000
    51 C51      2.5398  -2.5391 -11.3538   C.ar      1 RES1   0.0000
    52 C52      1.6044  -0.3685 -12.1798   C.3       1 RES1   0.0000
    53 H53      2.4588  -0.2306 -12.8391   H         1 RES1   0.0000
    54 H54      0.7445   0.1204 -12.6330   H         1 RES1   0.0000
    55 H55      1.8201   0.1308 -11.2375   H         1 RES1   0.0000
    56 C56      4.7713  -3.7911 -10.2522   C.ar      1 RES1   0.0000
    57 H57      5.6401  -4.2787  -9.8226   H         1 RES1   0.0000
    58 C58      3.6908  -1.8182 -11.0703   C.ar      1 RES1   0.0000
    59 H59      3.7221  -0.7543 -11.2807   H         1 RES1   0.0000
    60 C60      2.5264  -3.8996 -11.0781   C.ar      1 RES1   0.0000
    61 H61      1.6382  -4.4844 -11.2929   H         1 RES1   0.0000
    62 C62      3.6362  -4.5204 -10.5302   C.ar      1 RES1   0.0000
    63 H63      3.6112  -5.5844 -10.3195   H         1 RES1   0.0000
    64 C64      4.7993  -2.4405 -10.5218   C.ar      1 RES1   0.0000
    65 H65      5.6915  -1.8630 -10.3040   H         1 RES1   0.0000
@<TRIPOS>BOND
     1     1     5   ar
     2     1     6   ar
     3     1     2    1
     4     3     8   ar
     5     3     9   ar
     6     3     4    1
     7     5     9   ar
     8     5    11    1
     9     6     8   ar
    10     6     7    1
    11     8    12    1
    12     9    10    1
    13    11    20    2
    14    11    23    1
    15    13    14    1
    16    13    23   am
    17    13    24    1
    18    14    31    1
    19    14    34    1
    20    14    15    1
    21    16    24    1
    22    16    17    1
    23    16    18    1
    24    16    19    1
    25    20    21    1
    26    20    24    1
    27    21    40   ar
    28    21    45   ar
    29    22    23    2
    30    25    34    1
    31    25    37    1
    32    25    26    1
    33    25    27    1
    34    28    31    1
    35    28    37    1
    36    28    29    1
    37    28    30    1
    38    31    32    1
    39    31    33    1
    40    34    35    1
    41    34    36    1
    42    37    38    1
    43    37    39    1
    44    40    47   ar
    45    41    45   ar
    46    41    48   ar
    47    41    42    1
    48    43    47    1
    49    43    49    1
    50    43    44    1
    51    45    46    1
    52    47    48   ar
    53    49    51    1
    54    49    52    1
    55    49    50    1
    56    51    58   ar
    57    51    60   ar
    58    52    53    1
    59    52    54    1
    60    52    55    1
    61    56    62   ar
    62    56    64   ar
    63    56    57    1
    64    58    64   ar
    65    58    59    1
    66    60    62   ar
    67    60    61    1
    68    62    63    1
    69    64    65    1
@<TRIPOS>SUBSTRUCTURE
     1 RES1        1 GROUP             0 ****  ****    0  
@<TRIPOS>MOLECULE
LIGAND_00415
    65    69     1     0     0
SMALL
USER_CHARGES
****
Generated from the CSD

@<TRIPOS>ATOM
     1 C1      -3.0638  -4.4402 -16.2866   C.ar      1 RES1   0.0000
     2 H2      -3.6929  -5.3080 -16.4526   H         1 RES1   0.0000
     3 C3      -1.4996  -2.2042 -15.8562   C.ar      1 RES1   0.0000
     4 H4      -0.8945  -1.3196 -15.6869   H         1 RES1   0.0000
     5 C5      -2.0006  -4.5267 -15.3928   C.ar      1 RES1   0.0000
     6 C6      -3.3399  -3.2665 -16.9653   C.ar      1 RES1   0.0000
     7 H7      -4.1652  -3.2115 -17.6674   H         1 RES1   0.0000
     8 C8      -2.5497  -2.1771 -16.7290   C.ar      1 RES1   0.0000
     9 C9      -1.2260  -3.3872 -15.1945   C.ar      1 RES1   0.0000
    10 H10     -0.3858  -3.4222 -14.5103   H         1 RES1   0.0000
    11 C11     -1.6915  -5.7900 -14.6474   C.2       1 RES1   0.0000
    12 F12     -2.8188  -1.0178 -17.3889   F         1 RES1   0.0000
    13 N13     -1.1770  -7.9235 -14.1575   N.am      1 RES1   0.0000
    14 C14     -1.3729  -9.4082 -14.2756   C.3       1 RES1   0.0000
    15 H15     -1.1183  -9.7027 -15.2926   H         1 RES1   0.0000
    16 C16     -0.7223  -7.6249 -11.8028   C.3       1 RES1   0.0000
    17 H17     -1.2323  -8.3622 -11.1863   H         1 RES1   0.0000
    18 H18      0.2305  -8.0465 -12.1162   H         1 RES1   0.0000
    19 H19     -0.5207  -6.7497 -11.1887   H         1 RES1   0.0000
    20 C20     -1.7513  -5.9390 -13.3057   C.2       1 RES1   0.0000
    21 C21     -2.0254  -4.9138 -12.2663   C.ar      1 RES1   0.0000
    22 O22     -1.2622  -7.4102 -16.3957   O.2       1 RES1   0.0000
    23 C23     -1.3444  -7.0587 -15.2261   C.2       1 RES1   0.0000
    24 N24     -1.5383  -7.2653 -12.9631   N.3       1 RES1   0.0000
    25 C25     -0.6076 -11.6554 -13.4441   C.3       1 RES1   0.0000
    26 H26      0.0358 -12.1532 -12.7202   H         1 RES1   0.0000
    27 H27     -0.3320 -11.9680 -14.4502   H         1 RES1   0.0000
    28 C28     -2.9759 -11.3346 -14.1076   C.3       1 RES1   0.0000
    29 H29     -2.7692 -11.6500 -15.1292   H         1 RES1   0.0000
    30 H30     -3.9975 -11.6044 -13.8440   H         1 RES1   0.0000
    31 C31     -2.8173  -9.8248 -14.0094   C.3       1 RES1   0.0000
    32 H32     -3.4660  -9.3500 -14.7440   H         1 RES1   0.0000
    33 H33     -3.1029  -9.5009 -13.0097   H         1 RES1   0.0000
    34 C34     -0.4396 -10.1511 -13.3188   C.3       1 RES1   0.0000
    35 H35     -0.6677  -9.8523 -12.2967   H         1 RES1   0.0000
    36 H36      0.5910  -9.8882 -13.5524   H         1 RES1   0.0000
    37 N37     -2.0321 -12.0260 -13.1810   N.4       1 RES1   1.0000
    38 H38     -2.2652 -11.7707 -12.2267   H         1 RES1   0.0000
    39 H39     -2.1356 -13.0290 -13.2977   H         1 RES1   0.0000
    40 N40     -3.1488  -5.0691 -11.5482   N.ar      1 RES1   0.0000
    41 C41     -1.5487  -2.9443 -11.0618   C.ar      1 RES1   0.0000
    42 H42     -0.8989  -2.0972 -10.8681   H         1 RES1   0.0000
    43 N43     -4.5543  -4.2769  -9.9188   N.pl3     1 RES1   0.0000
    44 H44     -4.5590  -3.9573  -8.9502   H         1 RES1   0.0000
    45 C45     -1.1781  -3.8376 -12.0468   C.ar      1 RES1   0.0000
    46 H46     -0.2689  -3.7025 -12.6231   H         1 RES1   0.0000
    47 C47     -3.4203  -4.1344 -10.6232   C.ar      1 RES1   0.0000
    48 N48     -2.6660  -3.0643 -10.3331   N.ar      1 RES1   0.0000
    49 C49     -5.7637  -4.9188 -10.4334   C.3       1 RES1   0.0000
    50 H50     -5.5347  -5.9716 -10.6602   H         1 RES1   0.0000
    51 C51     -6.2786  -4.2542 -11.6950   C.ar      1 RES1   0.0000
    52 C52     -6.8144  -4.8775  -9.3299   C.3       1 RES1   0.0000
    53 H53     -7.7291  -5.3729  -9.6488   H         1 RES1   0.0000
    54 H54     -6.4540  -5.3765  -8.4328   H         1 RES1   0.0000
    55 H55     -7.0590  -3.8496  -9.0707   H         1 RES1   0.0000
    56 C56     -7.2189  -3.0195 -14.0084   C.ar      1 RES1   0.0000
    57 H57     -7.5845  -2.5389 -14.9098   H         1 RES1   0.0000
    58 C58     -6.0729  -2.8991 -11.9105   C.ar      1 RES1   0.0000
    59 H59     -5.5399  -2.3135 -11.1688   H         1 RES1   0.0000
    60 C60     -6.9661  -4.9804 -12.6578   C.ar      1 RES1   0.0000
    61 H61     -7.1406  -6.0411 -12.5105   H         1 RES1   0.0000
    62 C62     -7.4325  -4.3654 -13.8074   C.ar      1 RES1   0.0000
    63 H63     -7.9677  -4.9458 -14.5516   H         1 RES1   0.0000
    64 C64     -6.5394  -2.2860 -13.0608   C.ar      1 RES1   0.0000
    65 H65     -6.3692  -1.2258 -13.2160   H         1 RES1   0.0000
@<TRIPOS>BOND
     1     1     5   ar
     2     1     6   ar
     3     1     2    1
     4     3     8   ar
     5     3     9   ar
     6     3     4    1
     7     5     9   ar
     8     5    11    1
     9     6     8   ar
    10     6     7    1
    11     8    12    1
    12     9    10    1
    13    11    20    2
    14    11    23    1
    15    13    14    1
    16    13    23   am
    17    13    24    1
    18    14    31    1
    19    14    34    1
    20    14    15    1
    21    16    24    1
    22    16    17    1
    23    16    18    1
    24    16    19    1
    25    20    21    1
    26    20    24    1
    27    21    40   ar
    28    21    45   ar
    29    22    23    2
    30    25    34    1
    31    25    37    1
    32    25    26    1
    33    25    27    1
    34    28    31    1
    35    28    37    1
    36    28    29    1
    37    28    30    1
    38    31    32    1
    39    31    33    1
    40    34    35    1
    41    34    36    1
    42    37    38    1
    43    37    39    1
    44    40    47   ar
    45    41    45   ar
    46    41    48   ar
    47    41    42    1
    48    43    47    1
    49    43    49    1
    50    43    44    1
    51    45    46    1
    52    47    48   ar
    53    49    51    1
    54    49    52    1
    55    49    50    1
    56    51    58   ar
    57    51    60   ar
    58    52    53    1
    59    52    54    1
    60    52    55    1
    61    56    62   ar
    62    56    64   ar
    63    56    57    1
    64    58    64   ar
    65    58    59    1
    66    60    62   ar
    67    60    61    1
    68    62    63    1
    69    64    65    1
@<TRIPOS>SUBSTRUCTURE
     1 RES1        1 GROUP             0 ****  ****    0  
@<TRIPOS>MOLECULE
LIGAND_00416
    65    69     1     0     0
SMALL
USER_CHARGES
****
Generated from the CSD

@<TRIPOS>ATOM
     1 C1      -2.4792  -4.2529 -16.4101   C.ar      1 RES1   0.0000
     2 H2      -3.1362  -5.0584 -16.7202   H         1 RES1   0.0000
     3 C3      -0.8426  -2.1729 -15.6183   C.ar      1 RES1   0.0000
     4 H4      -0.2085  -1.3488 -15.3085   H         1 RES1   0.0000
     5 C5      -1.5964  -4.4580 -15.3540   C.ar      1 RES1   0.0000
     6 C6      -2.5412  -3.0390 -17.0712   C.ar      1 RES1   0.0000
     7 H7      -3.2258  -2.8917 -17.8997   H         1 RES1   0.0000
     8 C8      -1.7208  -2.0288 -16.6544   C.ar      1 RES1   0.0000
     9 C9      -0.7809  -3.3954 -14.9750   C.ar      1 RES1   0.0000
    10 H10     -0.0770  -3.5235 -14.1606   H         1 RES1   0.0000
    11 C11     -1.5206  -5.7662 -14.6259   C.2       1 RES1   0.0000
    12 F12     -1.7802  -0.8304 -17.2963   F         1 RES1   0.0000
    13 N13     -1.3114  -7.9562 -14.1607   N.am      1 RES1   0.0000
    14 C14     -1.6595  -9.4046 -14.3547   C.3       1 RES1   0.0000
    15 H15     -1.3266  -9.7019 -15.3481   H         1 RES1   0.0000
    16 C16     -1.1004  -7.7688 -11.7605   C.3       1 RES1   0.0000
    17 H17     -1.7557  -8.4612 -11.2360   H         1 RES1   0.0000
    18 H18     -0.1684  -8.2855 -11.9802   H         1 RES1   0.0000
    19 H19     -0.8791  -6.9388 -11.0929   H         1 RES1   0.0000
    20 C20     -1.7513  -5.9390 -13.3057   C.2       1 RES1   0.0000
    21 C21     -2.0254  -4.9138 -12.2663   C.ar      1 RES1   0.0000
    22 O22     -1.0792  -7.3834 -16.3739   O.2       1 RES1   0.0000
    23 C23     -1.2553  -7.0526 -15.2086   C.2       1 RES1   0.0000
    24 N24     -1.7311  -7.2889 -12.9907   N.3       1 RES1   0.0000
    25 C25     -1.2523 -11.7453 -13.5289   C.3       1 RES1   0.0000
    26 H26     -0.7552 -12.3323 -12.7580   H         1 RES1   0.0000
    27 H27     -0.9019 -12.0633 -14.5097   H         1 RES1   0.0000
    28 C28     -3.4789 -11.1344 -14.4349   C.3       1 RES1   0.0000
    29 H29     -3.1952 -11.4467 -15.4388   H         1 RES1   0.0000
    30 H30     -4.5476 -11.2896 -14.2949   H         1 RES1   0.0000
    31 C31     -3.1625  -9.6563 -14.2638   C.3       1 RES1   0.0000
    32 H32     -3.6662  -9.0912 -15.0467   H         1 RES1   0.0000
    33 H33     -3.5206  -9.3258 -13.2899   H         1 RES1   0.0000
    34 C34     -0.9303 -10.2744 -13.3300   C.3       1 RES1   0.0000
    35 H35     -1.2371  -9.9760 -12.3286   H         1 RES1   0.0000
    36 H36      0.1432 -10.1279 -13.4395   H         1 RES1   0.0000
    37 N37     -2.7300 -11.9536 -13.4371   N.4       1 RES1   1.0000
    38 H38     -3.0390 -11.6961 -12.5051   H         1 RES1   0.0000
    39 H39     -2.9326 -12.9345 -13.6017   H         1 RES1   0.0000
    40 N40     -1.1072  -4.7783 -11.2966   N.ar      1 RES1   0.0000
    41 C41     -3.3226  -3.2287 -11.2491   C.ar      1 RES1   0.0000
    42 H42     -4.2112  -2.6061 -11.2397   H         1 RES1   0.0000
    43 N43     -0.4495  -3.7510  -9.3549   N.pl3     1 RES1   0.0000
    44 H44      0.0582  -4.5873  -9.0665   H         1 RES1   0.0000
    45 C45     -3.1749  -4.1373 -12.2777   C.ar      1 RES1   0.0000
    46 H46     -3.9235  -4.2406 -13.0562   H         1 RES1   0.0000
    47 C47     -1.3567  -3.8727 -10.3371   C.ar      1 RES1   0.0000
    48 N48     -2.4311  -3.0737 -10.2618   N.ar      1 RES1   0.0000
    49 C49     -0.1884  -2.5078  -8.6297   C.3       1 RES1   0.0000
    50 H50     -1.1042  -2.2134  -8.0940   H         1 RES1   0.0000
    51 C51      0.2167  -1.3748  -9.5520   C.ar      1 RES1   0.0000
    52 C52      0.9037  -2.7910  -7.6048   C.3       1 RES1   0.0000
    53 H53      1.1161  -1.9040  -7.0117   H         1 RES1   0.0000
    54 H54      0.6024  -3.5873  -6.9274   H         1 RES1   0.0000
    55 H55      1.8239  -3.0965  -8.0984   H         1 RES1   0.0000
    56 C56      0.9733   0.6987 -11.2515   C.ar      1 RES1   0.0000
    57 H57      1.2675   1.5060 -11.9139   H         1 RES1   0.0000
    58 C58      1.3495  -1.4846 -10.3456   C.ar      1 RES1   0.0000
    59 H59      1.9478  -2.3887 -10.3033   H         1 RES1   0.0000
    60 C60     -0.5299  -0.2067  -9.6224   C.ar      1 RES1   0.0000
    61 H61     -1.4187  -0.0972  -9.0100   H         1 RES1   0.0000
    62 C62     -0.1528   0.8230 -10.4680   C.ar      1 RES1   0.0000
    63 H63     -0.7464   1.7300 -10.5131   H         1 RES1   0.0000
    64 C64      1.7246  -0.4543 -11.1910   C.ar      1 RES1   0.0000
    65 H65      2.6120  -0.5557 -11.8068   H         1 RES1   0.0000
@<TRIPOS>BOND
     1     1     5   ar
     2     1     6   ar
     3     1     2    1
     4     3     8   ar
     5     3     9   ar
     6     3     4    1
     7     5     9   ar
     8     5    11    1
     9     6     8   ar
    10     6     7    1
    11     8    12    1
    12     9    10    1
    13    11    20    2
    14    11    23    1
    15    13    14    1
    16    13    23   am
    17    13    24    1
    18    14    31    1
    19    14    34    1
    20    14    15    1
    21    16    24    1
    22    16    17    1
    23    16    18    1
    24    16    19    1
    25    20    21    1
    26    20    24    1
    27    21    40   ar
    28    21    45   ar
    29    22    23    2
    30    25    34    1
    31    25    37    1
    32    25    26    1
    33    25    27    1
    34    28    31    1
    35    28    37    1
    36    28    29    1
    37    28    30    1
    38    31    32    1
    39    31    33    1
    40    34    35    1
    41    34    36    1
    42    37    38    1
    43    37    39    1
    44    40    47   ar
    45    41    45   ar
    46    41    48   ar
    47    41    42    1
    48    43    47    1
    49    43    49    1
    50    43    44    1
    51    45    46    1
    52    47    48   ar
    53    49    51    1
    54    49    52    1
    55    49    50    1
    56    51    58   ar
    57    51    60   ar
    58    52    53    1
    59    52    54    1
    60    52    55    1
    61    56    62   ar
    62    56    64   ar
    63    56    57    1
    64    58    64   ar
    65    58    59    1
    66    60    62   ar
    67    60    61    1
    68    62    63    1
    69    64    65    1
@<TRIPOS>SUBSTRUCTURE
     1 RES1        1 GROUP             0 ****  ****    0  
@<TRIPOS>MOLECULE
LIGAND_00417
    65    69     1     0     0
SMALL
USER_CHARGES
****
Generated from the CSD

@<TRIPOS>ATOM
     1 C1       0.1283  -3.9048 -12.3561   C.ar      1 RES1   0.0000
     2 H2       1.0742  -4.3130 -12.6952   H         1 RES1   0.0000
     3 C3      -2.2692  -2.8238 -11.5105   C.ar      1 RES1   0.0000
     4 H4      -3.2072  -2.3890 -11.1813   H         1 RES1   0.0000
     5 C5      -1.0539  -4.5733 -12.6602   C.ar      1 RES1   0.0000
     6 C6       0.1226  -2.7247 -11.6337   C.ar      1 RES1   0.0000
     7 H7       1.0500  -2.2159 -11.3932   H         1 RES1   0.0000
     8 C8      -1.0794  -2.2139 -11.2318   C.ar      1 RES1   0.0000
     9 C9      -2.2487  -4.0096 -12.2215   C.ar      1 RES1   0.0000
    10 H10     -3.1873  -4.5082 -12.4353   H         1 RES1   0.0000
    11 C11     -1.0638  -5.8504 -13.4452   C.2       1 RES1   0.0000
    12 F12     -1.0930  -1.0508 -10.5255   F         1 RES1   0.0000
    13 N13     -1.3135  -7.9273 -14.1979   N.am      1 RES1   0.0000
    14 C14     -1.6802  -9.3709 -14.3933   C.3       1 RES1   0.0000
    15 H15     -1.3665  -9.6668 -15.3932   H         1 RES1   0.0000
    16 C16     -0.5638  -7.5981 -16.5868   C.3       1 RES1   0.0000
    17 H17      0.3892  -8.1040 -16.7269   H         1 RES1   0.0000
    18 H18     -1.3577  -8.2900 -16.8604   H         1 RES1   0.0000
    19 H19     -0.6020  -6.7510 -17.2685   H         1 RES1   0.0000
    20 C20     -0.5870  -5.9122 -14.7311   C.2       1 RES1   0.0000
    21 C21      0.0604  -4.8376 -15.5265   C.ar      1 RES1   0.0000
    22 O22     -2.0435  -7.5947 -12.0886   O.2       1 RES1   0.0000
    23 C23     -1.5280  -7.1562 -13.1085   C.2       1 RES1   0.0000
    24 N24     -0.7162  -7.1537 -15.2010   N.pl3     1 RES1   0.0000
    25 C25     -1.2853 -11.7200 -13.5854   C.3       1 RES1   0.0000
    26 H26     -0.7824 -12.3161 -12.8254   H         1 RES1   0.0000
    27 H27     -0.9541 -12.0368 -14.5732   H         1 RES1   0.0000
    28 C28     -3.5193 -11.0806 -14.4528   C.3       1 RES1   0.0000
    29 H29     -3.2550 -11.3910 -15.4626   H         1 RES1   0.0000
    30 H30     -4.5873 -11.2251 -14.2964   H         1 RES1   0.0000
    31 C31     -3.1842  -9.6069 -14.2796   C.3       1 RES1   0.0000
    32 H32     -3.6942  -9.0326 -15.0516   H         1 RES1   0.0000
    33 H33     -3.5233  -9.2775 -13.2985   H         1 RES1   0.0000
    34 C34     -0.9443 -10.2536 -13.3845   C.3       1 RES1   0.0000
    35 H35     -1.2319  -9.9570 -12.3769   H         1 RES1   0.0000
    36 H36      0.1288 -10.1181 -13.5105   H         1 RES1   0.0000
    37 N37     -2.7636 -11.9129 -13.4710   N.4       1 RES1   1.0000
    38 H38     -3.0549 -11.6568 -12.5330   H         1 RES1   0.0000
    39 H39     -2.9793 -12.8907 -13.6371   H         1 RES1   0.0000
    40 N40      1.0505  -5.2120 -16.3517   N.ar      1 RES1   0.0000
    41 C41      0.3664  -2.6002 -16.2028   C.ar      1 RES1   0.0000
    42 H42      0.0825  -1.5547 -16.1423   H         1 RES1   0.0000
    43 N43      2.6654  -4.6157 -17.8667   N.pl3     1 RES1   0.0000
    44 H44      3.1177  -3.8941 -18.4280   H         1 RES1   0.0000
    45 C45     -0.3206  -3.5078 -15.4220   C.ar      1 RES1   0.0000
    46 H46     -1.1186  -3.1952 -14.7566   H         1 RES1   0.0000
    47 C47      1.6606  -4.2456 -17.0567   C.ar      1 RES1   0.0000
    48 N48      1.3642  -2.9380 -17.0297   N.ar      1 RES1   0.0000
    49 C49      3.1103  -5.9981 -18.0417   C.3       1 RES1   0.0000
    50 H50      3.3521  -6.4184 -17.0532   H         1 RES1   0.0000
    51 C51      4.3387  -6.1025 -18.9241   C.ar      1 RES1   0.0000
    52 C52      1.9478  -6.7865 -18.6334   C.3       1 RES1   0.0000
    53 H53      1.7799  -7.7049 -18.0746   H         1 RES1   0.0000
    54 H54      1.0304  -6.2021 -18.6080   H         1 RES1   0.0000
    55 H55      2.1513  -7.0526 -19.6685   H         1 RES1   0.0000
    56 C56      6.5880  -6.2876 -20.5572   C.ar      1 RES1   0.0000
    57 H57      7.4643  -6.3592 -21.1928   H         1 RES1   0.0000
    58 C58      4.3048  -5.6463 -20.2340   C.ar      1 RES1   0.0000
    59 H59      3.3910  -5.2128 -20.6269   H         1 RES1   0.0000
    60 C60      5.5188  -6.6557 -18.4465   C.ar      1 RES1   0.0000
    61 H61      5.5688  -7.0208 -17.4261   H         1 RES1   0.0000
    62 C62      6.6362  -6.7467 -19.2593   C.ar      1 RES1   0.0000
    63 H63      7.5520  -7.1809 -18.8722   H         1 RES1   0.0000
    64 C64      5.4231  -5.7375 -21.0450   C.ar      1 RES1   0.0000
    65 H65      5.3817  -5.3748 -22.0667   H         1 RES1   0.0000
@<TRIPOS>BOND
     1     1     5   ar
     2     1     6   ar
     3     1     2    1
     4     3     8   ar
     5     3     9   ar
     6     3     4    1
     7     5     9   ar
     8     5    11    1
     9     6     8   ar
    10     6     7    1
    11     8    12    1
    12     9    10    1
    13    11    20    2
    14    11    23    1
    15    13    14    1
    16    13    23   am
    17    13    24    1
    18    14    31    1
    19    14    34    1
    20    14    15    1
    21    16    24    1
    22    16    17    1
    23    16    18    1
    24    16    19    1
    25    20    21    1
    26    20    24    1
    27    21    40   ar
    28    21    45   ar
    29    22    23    2
    30    25    34    1
    31    25    37    1
    32    25    26    1
    33    25    27    1
    34    28    31    1
    35    28    37    1
    36    28    29    1
    37    28    30    1
    38    31    32    1
    39    31    33    1
    40    34    35    1
    41    34    36    1
    42    37    38    1
    43    37    39    1
    44    40    47   ar
    45    41    45   ar
    46    41    48   ar
    47    41    42    1
    48    43    47    1
    49    43    49    1
    50    43    44    1
    51    45    46    1
    52    47    48   ar
    53    49    51    1
    54    49    52    1
    55    49    50    1
    56    51    58   ar
    57    51    60   ar
    58    52    53    1
    59    52    54    1
    60    52    55    1
    61    56    62   ar
    62    56    64   ar
    63    56    57    1
    64    58    64   ar
    65    58    59    1
    66    60    62   ar
    67    60    61    1
    68    62    63    1
    69    64    65    1
@<TRIPOS>SUBSTRUCTURE
     1 RES1        1 GROUP             0 ****  ****    0  
@<TRIPOS>MOLECULE
LIGAND_00418
    65    69     1     0     0
SMALL
USER_CHARGES
****
Generated from the CSD

@<TRIPOS>ATOM
     1 C1      -1.0021  -4.1804 -11.6141   C.ar      1 RES1   0.0000
     2 H2      -0.4300  -4.9288 -11.0764   H         1 RES1   0.0000
     3 C3      -2.4254  -2.2433 -12.9755   C.ar      1 RES1   0.0000
     4 H4      -2.9770  -1.4747 -13.5068   H         1 RES1   0.0000
     5 C5      -1.4916  -4.4747 -12.8832   C.ar      1 RES1   0.0000
     6 C6      -1.2251  -2.9488 -11.0243   C.ar      1 RES1   0.0000
     7 H7      -0.8477  -2.7320 -10.0306   H         1 RES1   0.0000
     8 C8      -1.9304  -2.0106 -11.7241   C.ar      1 RES1   0.0000
     9 C9      -2.2073  -3.4830 -13.5481   C.ar      1 RES1   0.0000
    10 H10     -2.6085  -3.6816 -14.5354   H         1 RES1   0.0000
    11 C11     -1.2548  -5.8029 -13.5366   C.2       1 RES1   0.0000
    12 F12     -2.1488  -0.7952 -11.1525   F         1 RES1   0.0000
    13 N13     -1.1780  -7.9481 -14.1156   N.am      1 RES1   0.0000
    14 C14     -1.3637  -9.4349 -14.2221   C.3       1 RES1   0.0000
    15 H15     -0.8820  -9.7707 -15.1392   H         1 RES1   0.0000
    16 C16     -0.1160  -7.7267 -16.3961   C.3       1 RES1   0.0000
    17 H17      0.7224  -7.1636 -16.8009   H         1 RES1   0.0000
    18 H18      0.1857  -8.7686 -16.3108   H         1 RES1   0.0000
    19 H19     -0.9384  -7.6686 -17.1059   H         1 RES1   0.0000
    20 C20     -0.5870  -5.9122 -14.7311   C.2       1 RES1   0.0000
    21 C21      0.0604  -4.8376 -15.5265   C.ar      1 RES1   0.0000
    22 O22     -2.2455  -7.5340 -12.1710   O.2       1 RES1   0.0000
    23 C23     -1.6299  -7.1222 -13.1456   C.2       1 RES1   0.0000
    24 N24     -0.5183  -7.1938 -15.0940   N.pl3     1 RES1   0.0000
    25 C25     -0.8500 -11.6528 -13.1525   C.3       1 RES1   0.0000
    26 H26     -0.4023 -12.1261 -12.2799   H         1 RES1   0.0000
    27 H27     -0.3507 -12.0063 -14.0534   H         1 RES1   0.0000
    28 C28     -2.9910 -11.3428 -14.3657   C.3       1 RES1   0.0000
    29 H29     -2.5551 -11.6993 -15.2978   H         1 RES1   0.0000
    30 H30     -4.0500 -11.5955 -14.3402   H         1 RES1   0.0000
    31 C31     -2.8364  -9.8314 -14.2881   C.3       1 RES1   0.0000
    32 H32     -3.2871  -9.3815 -15.1715   H         1 RES1   0.0000
    33 H33     -3.3437  -9.4668 -13.3961   H         1 RES1   0.0000
    34 C34     -0.6928 -10.1459 -13.0462   C.3       1 RES1   0.0000
    35 H35     -1.1498  -9.8059 -12.1181   H         1 RES1   0.0000
    36 H36      0.3678  -9.8991 -13.0402   H         1 RES1   0.0000
    37 N37     -2.3020 -12.0036 -13.2185   N.4       1 RES1   1.0000
    38 H38     -2.7486 -11.7096 -12.3558   H         1 RES1   0.0000
    39 H39     -2.3907 -13.0097 -13.3196   H         1 RES1   0.0000
    40 N40     -0.0039  -4.9545 -16.8621   N.ar      1 RES1   0.0000
    41 C41      1.2879  -2.8409 -15.7779   C.ar      1 RES1   0.0000
    42 H42      1.7995  -1.9922 -15.3360   H         1 RES1   0.0000
    43 N43      0.5551  -4.1295 -18.9273   N.pl3     1 RES1   0.0000
    44 H44      0.0904  -4.9508 -19.3143   H         1 RES1   0.0000
    45 C45      0.7132  -3.7678 -14.9318   C.ar      1 RES1   0.0000
    46 H46      0.7719  -3.6654 -13.8533   H         1 RES1   0.0000
    47 C47      0.6002  -4.0026 -17.5915   C.ar      1 RES1   0.0000
    48 N48      1.2501  -2.9313 -17.1136   N.ar      1 RES1   0.0000
    49 C49      1.1852  -3.1963 -19.8610   C.3       1 RES1   0.0000
    50 H50      0.8189  -2.1806 -19.6452   H         1 RES1   0.0000
    51 C51      0.8713  -3.5255 -21.3072   C.ar      1 RES1   0.0000
    52 C52      2.6879  -3.2341 -19.6090   C.3       1 RES1   0.0000
    53 H53      3.2374  -2.9708 -20.5103   H         1 RES1   0.0000
    54 H54      2.9672  -2.5333 -18.8250   H         1 RES1   0.0000
    55 H55      3.0008  -4.2295 -19.3006   H         1 RES1   0.0000
    56 C56      0.3010  -4.1444 -23.9628   C.ar      1 RES1   0.0000
    57 H57      0.0782  -4.3855 -24.9969   H         1 RES1   0.0000
    58 C58      1.2330  -4.7528 -21.8438   C.ar      1 RES1   0.0000
    59 H59      1.7445  -5.4798 -21.2217   H         1 RES1   0.0000
    60 C60      0.2207  -2.6117 -22.1249   C.ar      1 RES1   0.0000
    61 H61     -0.0704  -1.6448 -21.7280   H         1 RES1   0.0000
    62 C62     -0.0624  -2.9209 -23.4446   C.ar      1 RES1   0.0000
    63 H63     -0.5721  -2.1971 -24.0718   H         1 RES1   0.0000
    64 C64      0.9485  -5.0605 -23.1634   C.ar      1 RES1   0.0000
    65 H65      1.2361  -6.0251 -23.5682   H         1 RES1   0.0000
@<TRIPOS>BOND
     1     1     5   ar
     2     1     6   ar
     3     1     2    1
     4     3     8   ar
     5     3     9   ar
     6     3     4    1
     7     5     9   ar
     8     5    11    1
     9     6     8   ar
    10     6     7    1
    11     8    12    1
    12     9    10    1
    13    11    20    2
    14    11    23    1
    15    13    14    1
    16    13    23   am
    17    13    24    1
    18    14    31    1
    19    14    34    1
    20    14    15    1
    21    16    24    1
    22    16    17    1
    23    16    18    1
    24    16    19    1
    25    20    21    1
    26    20    24    1
    27    21    40   ar
    28    21    45   ar
    29    22    23    2
    30    25    34    1
    31    25    37    1
    32    25    26    1
    33    25    27    1
    34    28    31    1
    35    28    37    1
    36    28    29    1
    37    28    30    1
    38    31    32    1
    39    31    33    1
    40    34    35    1
    41    34    36    1
    42    37    38    1
    43    37    39    1
    44    40    47   ar
    45    41    45   ar
    46    41    48   ar
    47    41    42    1
    48    43    47    1
    49    43    49    1
    50    43    44    1
    51    45    46    1
    52    47    48   ar
    53    49    51    1
    54    49    52    1
    55    49    50    1
    56    51    58   ar
    57    51    60   ar
    58    52    53    1
    59    52    54    1
    60    52    55    1
    61    56    62   ar
    62    56    64   ar
    63    56    57    1
    64    58    64   ar
    65    58    59    1
    66    60    62   ar
    67    60    61    1
    68    62    63    1
    69    64    65    1
@<TRIPOS>SUBSTRUCTURE
     1 RES1        1 GROUP             0 ****  ****    0  
@<TRIPOS>MOLECULE
LIGAND_00419
    65    69     1     0     0
SMALL
USER_CHARGES
****
Generated from the CSD

@<TRIPOS>ATOM
     1 C1       0.7228  -3.9624 -12.8429   C.ar      1 RES1   0.0000
     2 H2       1.3919  -4.2718 -13.6385   H         1 RES1   0.0000
     3 C3      -0.9811  -3.1310 -10.8336   C.ar      1 RES1   0.0000
     4 H4      -1.6489  -2.7939 -10.0477   H         1 RES1   0.0000
     5 C5      -0.4372  -4.6923 -12.6017   C.ar      1 RES1   0.0000
     6 C6       1.0391  -2.8444 -12.0915   C.ar      1 RES1   0.0000
     7 H7       1.9506  -2.2873 -12.2806   H         1 RES1   0.0000
     8 C8       0.1748  -2.4569 -11.1065   C.ar      1 RES1   0.0000
     9 C9      -1.2787  -4.2546 -11.5828   C.ar      1 RES1   0.0000
    10 H10     -2.1871  -4.8042 -11.3641   H         1 RES1   0.0000
    11 C11     -0.7950  -5.9032 -13.4097   C.2       1 RES1   0.0000
    12 F12      0.4767  -1.3550 -10.3671   F         1 RES1   0.0000
    13 N13     -1.3232  -7.9299 -14.1556   N.am      1 RES1   0.0000
    14 C14     -1.6978  -9.3779 -14.2957   C.3       1 RES1   0.0000
    15 H15     -1.4733  -9.6878 -15.3153   H         1 RES1   0.0000
    16 C16     -1.8517  -7.3649 -16.5596   C.3       1 RES1   0.0000
    17 H17     -1.0464  -7.4974 -17.2791   H         1 RES1   0.0000
    18 H18     -2.4311  -8.2853 -16.5267   H         1 RES1   0.0000
    19 H19     -2.5001  -6.5684 -16.9185   H         1 RES1   0.0000
    20 C20     -1.0090  -5.8313 -14.7639   C.2       1 RES1   0.0000
    21 C21     -0.8657  -4.6538 -15.6582   C.ar      1 RES1   0.0000
    22 O22     -0.9335  -7.8141 -11.9359   O.2       1 RES1   0.0000
    23 C23     -0.9973  -7.2620 -13.0265   C.2       1 RES1   0.0000
    24 N24     -1.3170  -7.0397 -15.2369   N.pl3     1 RES1   0.0000
    25 C25     -1.2185 -11.7125 -13.4916   C.3       1 RES1   0.0000
    26 H26     -0.6461 -12.2948 -12.7710   H         1 RES1   0.0000
    27 H27     -0.9755 -12.0431 -14.5003   H         1 RES1   0.0000
    28 C28     -3.5250 -11.0963 -14.1643   C.3       1 RES1   0.0000
    29 H29     -3.3506 -11.4210 -15.1890   H         1 RES1   0.0000
    30 H30     -4.5738 -11.2429 -13.9105   H         1 RES1   0.0000
    31 C31     -3.1842  -9.6186 -14.0439   C.3       1 RES1   0.0000
    32 H32     -3.7646  -9.0585 -14.7755   H         1 RES1   0.0000
    33 H33     -3.4356  -9.2756 -13.0414   H         1 RES1   0.0000
    34 C34     -0.8693 -10.2418 -13.3441   C.3       1 RES1   0.0000
    35 H35     -1.0670  -9.9310 -12.3192   H         1 RES1   0.0000
    36 H36      0.1874 -10.1036 -13.5679   H         1 RES1   0.0000
    37 N37     -2.6795 -11.9100 -13.2420   N.4       1 RES1   1.0000
    38 H38     -2.8869 -11.6408 -12.2856   H         1 RES1   0.0000
    39 H39     -2.9037 -12.8912 -13.3735   H         1 RES1   0.0000
    40 N40     -0.3996  -4.8895 -16.8946   N.ar      1 RES1   0.0000
    41 C41     -0.9925  -2.3548 -16.1630   C.ar      1 RES1   0.0000
    42 H42     -1.2381  -1.3409 -15.8646   H         1 RES1   0.0000
    43 N43      0.2449  -4.0608 -18.9333   N.pl3     1 RES1   0.0000
    44 H44      0.5104  -5.0165 -19.1706   H         1 RES1   0.0000
    45 C45     -1.1819  -3.3680 -15.2449   C.ar      1 RES1   0.0000
    46 H46     -1.5578  -3.1673 -14.2471   H         1 RES1   0.0000
    47 C47     -0.2414  -3.8294 -17.7034   C.ar      1 RES1   0.0000
    48 N48     -0.5215  -2.5533 -17.4009   N.ar      1 RES1   0.0000
    49 C49      0.4769  -3.0180 -19.9325   C.3       1 RES1   0.0000
    50 H50      0.7670  -2.0911 -19.4139   H         1 RES1   0.0000
    51 C51     -0.7545  -2.7369 -20.7710   C.ar      1 RES1   0.0000
    52 C52      1.6398  -3.4681 -20.8090   C.3       1 RES1   0.0000
    53 H53      1.8777  -2.7113 -21.5536   H         1 RES1   0.0000
    54 H54      2.5305  -3.6458 -20.2100   H         1 RES1   0.0000
    55 H55      1.3931  -4.3904 -21.3308   H         1 RES1   0.0000
    56 C56     -3.0173  -2.2350 -22.3164   C.ar      1 RES1   0.0000
    57 H57     -3.8990  -2.0396 -22.9177   H         1 RES1   0.0000
    58 C58     -1.3290  -3.7416 -21.5362   C.ar      1 RES1   0.0000
    59 H59     -0.8913  -4.7344 -21.5328   H         1 RES1   0.0000
    60 C60     -1.3319  -1.4747 -20.7951   C.ar      1 RES1   0.0000
    61 H61     -0.8992  -0.6727 -20.2063   H         1 RES1   0.0000
    62 C62     -2.4568  -1.2268 -21.5634   C.ar      1 RES1   0.0000
    63 H63     -2.8976  -0.2356 -21.5720   H         1 RES1   0.0000
    64 C64     -2.4543  -3.4921 -22.3032   C.ar      1 RES1   0.0000
    65 H65     -2.8932  -4.2885 -22.8950   H         1 RES1   0.0000
@<TRIPOS>BOND
     1     1     5   ar
     2     1     6   ar
     3     1     2    1
     4     3     8   ar
     5     3     9   ar
     6     3     4    1
     7     5     9   ar
     8     5    11    1
     9     6     8   ar
    10     6     7    1
    11     8    12    1
    12     9    10    1
    13    11    20    2
    14    11    23    1
    15    13    14    1
    16    13    23   am
    17    13    24    1
    18    14    31    1
    19    14    34    1
    20    14    15    1
    21    16    24    1
    22    16    17    1
    23    16    18    1
    24    16    19    1
    25    20    21    1
    26    20    24    1
    27    21    40   ar
    28    21    45   ar
    29    22    23    2
    30    25    34    1
    31    25    37    1
    32    25    26    1
    33    25    27    1
    34    28    31    1
    35    28    37    1
    36    28    29    1
    37    28    30    1
    38    31    32    1
    39    31    33    1
    40    34    35    1
    41    34    36    1
    42    37    38    1
    43    37    39    1
    44    40    47   ar
    45    41    45   ar
    46    41    48   ar
    47    41    42    1
    48    43    47    1
    49    43    49    1
    50    43    44    1
    51    45    46    1
    52    47    48   ar
    53    49    51    1
    54    49    52    1
    55    49    50    1
    56    51    58   ar
    57    51    60   ar
    58    52    53    1
    59    52    54    1
    60    52    55    1
    61    56    62   ar
    62    56    64   ar
    63    56    57    1
    64    58    64   ar
    65    58    59    1
    66    60    62   ar
    67    60    61    1
    68    62    63    1
    69    64    65    1
@<TRIPOS>SUBSTRUCTURE
     1 RES1        1 GROUP             0 ****  ****    0  
@<TRIPOS>MOLECULE
LIGAND_00420
    65    69     1     0     0
SMALL
USER_CHARGES
****
Generated from the CSD

@<TRIPOS>ATOM
     1 C1      -1.1692  -3.4197 -15.0825   C.ar      1 RES1   0.0000
     2 H2      -2.1949  -3.5539 -14.7562   H         1 RES1   0.0000
     3 C3       1.4459  -3.0392 -15.8877   C.ar      1 RES1   0.0000
     4 H4       2.4729  -2.8796 -16.1989   H         1 RES1   0.0000
     5 C5      -0.2765  -4.4832 -14.9888   C.ar      1 RES1   0.0000
     6 C6      -0.7743  -2.1899 -15.5789   C.ar      1 RES1   0.0000
     7 H7      -1.4799  -1.3696 -15.6571   H         1 RES1   0.0000
     8 C8       0.5265  -2.0323 -15.9665   C.ar      1 RES1   0.0000
     9 C9       1.0349  -4.2672 -15.4025   C.ar      1 RES1   0.0000
    10 H10      1.7543  -5.0765 -15.3494   H         1 RES1   0.0000
    11 C11     -0.6887  -5.8199 -14.4498   C.2       1 RES1   0.0000
    12 F12      0.9233  -0.8239 -16.4505   F         1 RES1   0.0000
    13 N13     -1.1385  -7.9692 -14.1021   N.am      1 RES1   0.0000
    14 C14     -1.2688  -9.4629 -14.1943   C.3       1 RES1   0.0000
    15 H15     -0.9101  -9.7734 -15.1745   H         1 RES1   0.0000
    16 C16     -1.7380  -7.8785 -11.6505   C.3       1 RES1   0.0000
    17 H17     -2.3120  -7.2068 -11.0155   H         1 RES1   0.0000
    18 H18     -2.3145  -8.7913 -11.7861   H         1 RES1   0.0000
    19 H19     -0.8169  -8.1330 -11.1306   H         1 RES1   0.0000
    20 C20     -1.1594  -5.9688 -13.1688   C.2       1 RES1   0.0000
    21 C21     -1.4160  -4.9157 -12.1531   C.ar      1 RES1   0.0000
    22 O22     -0.3393  -7.4938 -16.1582   O.2       1 RES1   0.0000
    23 C23     -0.6814  -7.1157 -15.0454   C.2       1 RES1   0.0000
    24 N24     -1.4473  -7.2509 -12.9401   N.pl3     1 RES1   0.0000
    25 C25     -0.5035 -11.6567 -13.2307   C.3       1 RES1   0.0000
    26 H26      0.0873 -12.1105 -12.4364   H         1 RES1   0.0000
    27 H27     -0.1243 -11.9841 -14.1976   H         1 RES1   0.0000
    28 C28     -2.8099 -11.4448 -14.1184   C.3       1 RES1   0.0000
    29 H29     -2.4977 -11.7782 -15.1070   H         1 RES1   0.0000
    30 H30     -3.8411 -11.7472 -13.9422   H         1 RES1   0.0000
    31 C31     -2.7157  -9.9280 -14.0501   C.3       1 RES1   0.0000
    32 H32     -3.3100  -9.4977 -14.8548   H         1 RES1   0.0000
    33 H33     -3.1046  -9.5899 -13.0908   H         1 RES1   0.0000
    34 C34     -0.4024 -10.1443 -13.1344   C.3       1 RES1   0.0000
    35 H35     -0.7353  -9.8283 -12.1468   H         1 RES1   0.0000
    36 H36      0.6353  -9.8478 -13.2797   H         1 RES1   0.0000
    37 N37     -1.9319 -12.0752 -13.0891   N.4       1 RES1   1.0000
    38 H38     -2.2619 -11.8046 -12.1681   H         1 RES1   0.0000
    39 H39     -1.9879 -13.0841 -13.1855   H         1 RES1   0.0000
    40 N40     -2.5040  -5.0736 -11.3829   N.ar      1 RES1   0.0000
    41 C41     -0.9401  -2.8952 -11.0360   C.ar      1 RES1   0.0000
    42 H42     -0.3048  -2.0264 -10.8983   H         1 RES1   0.0000
    43 N43     -3.8600  -4.2605  -9.7221   N.pl3     1 RES1   0.0000
    44 H44     -4.4659  -5.0596  -9.9081   H         1 RES1   0.0000
    45 C45     -0.5883  -3.8123 -12.0057   C.ar      1 RES1   0.0000
    46 H46      0.2923  -3.6750 -12.6245   H         1 RES1   0.0000
    47 C47     -2.7605  -4.1147 -10.4787   C.ar      1 RES1   0.0000
    48 N48     -2.0225  -3.0172 -10.2566   N.ar      1 RES1   0.0000
    49 C49     -4.2767  -3.3112  -8.6903   C.3       1 RES1   0.0000
    50 H50     -3.3826  -2.8032  -8.2969   H         1 RES1   0.0000
    51 C51     -4.9936  -3.9876  -7.5383   C.ar      1 RES1   0.0000
    52 C52     -5.1733  -2.2720  -9.3530   C.3       1 RES1   0.0000
    53 H53     -5.4879  -1.5184  -8.6341   H         1 RES1   0.0000
    54 H54     -4.6501  -1.7692 -10.1637   H         1 RES1   0.0000
    55 H55     -6.0651  -2.7402  -9.7645   H         1 RES1   0.0000
    56 C56     -6.3236  -5.2219  -5.4245   C.ar      1 RES1   0.0000
    57 H57     -6.8416  -5.7033  -4.6017   H         1 RES1   0.0000
    58 C58     -6.2995  -3.6416  -7.2220   C.ar      1 RES1   0.0000
    59 H59     -6.8084  -2.8809  -7.8046   H         1 RES1   0.0000
    60 C60     -4.3639  -4.9615  -6.7755   C.ar      1 RES1   0.0000
    61 H61     -3.3423  -5.2473  -7.0029   H         1 RES1   0.0000
    62 C62     -5.0263  -5.5744  -5.7253   C.ar      1 RES1   0.0000
    63 H63     -4.5217  -6.3345  -5.1382   H         1 RES1   0.0000
    64 C64     -6.9605  -4.2561  -6.1720   C.ar      1 RES1   0.0000
    65 H65     -7.9822  -3.9761  -5.9380   H         1 RES1   0.0000
@<TRIPOS>BOND
     1     1     5   ar
     2     1     6   ar
     3     1     2    1
     4     3     8   ar
     5     3     9   ar
     6     3     4    1
     7     5     9   ar
     8     5    11    1
     9     6     8   ar
    10     6     7    1
    11     8    12    1
    12     9    10    1
    13    11    20    2
    14    11    23    1
    15    13    14    1
    16    13    23   am
    17    13    24    1
    18    14    31    1
    19    14    34    1
    20    14    15    1
    21    16    24    1
    22    16    17    1
    23    16    18    1
    24    16    19    1
    25    20    21    1
    26    20    24    1
    27    21    40   ar
    28    21    45   ar
    29    22    23    2
    30    25    34    1
    31    25    37    1
    32    25    26    1
    33    25    27    1
    34    28    31    1
    35    28    37    1
    36    28    29    1
    37    28    30    1
    38    31    32    1
    39    31    33    1
    40    34    35    1
    41    34    36    1
    42    37    38    1
    43    37    39    1
    44    40    47   ar
    45    41    45   ar
    46    41    48   ar
    47    41    42    1
    48    43    47    1
    49    43    49    1
    50    43    44    1
    51    45    46    1
    52    47    48   ar
    53    49    51    1
    54    49    52    1
    55    49    50    1
    56    51    58   ar
    57    51    60   ar
    58    52    53    1
    59    52    54    1
    60    52    55    1
    61    56    62   ar
    62    56    64   ar
    63    56    57    1
    64    58    64   ar
    65    58    59    1
    66    60    62   ar
    67    60    61    1
    68    62    63    1
    69    64    65    1
@<TRIPOS>SUBSTRUCTURE
     1 RES1        1 GROUP             0 ****  ****    0  
@<TRIPOS>MOLECULE
LIGAND_00421
    65    69     1     0     0
SMALL
USER_CHARGES
****
Generated from the CSD

@<TRIPOS>ATOM
     1 C1      -1.1694  -3.4197 -15.0825   C.ar      1 RES1   0.0000
     2 H2      -2.1950  -3.5540 -14.7562   H         1 RES1   0.0000
     3 C3       1.4457  -3.0391 -15.8877   C.ar      1 RES1   0.0000
     4 H4       2.4728  -2.8795 -16.1990   H         1 RES1   0.0000
     5 C5      -0.2766  -4.4832 -14.9889   C.ar      1 RES1   0.0000
     6 C6      -0.7745  -2.1900 -15.5789   C.ar      1 RES1   0.0000
     7 H7      -1.4801  -1.3697 -15.6571   H         1 RES1   0.0000
     8 C8       0.5263  -2.0323 -15.9666   C.ar      1 RES1   0.0000
     9 C9       1.0348  -4.2671 -15.4026   C.ar      1 RES1   0.0000
    10 H10      1.7542  -5.0764 -15.3495   H         1 RES1   0.0000
    11 C11     -0.6888  -5.8199 -14.4498   C.2       1 RES1   0.0000
    12 F12      0.9231  -0.8239 -16.4506   F         1 RES1   0.0000
    13 N13     -1.1385  -7.9692 -14.1021   N.am      1 RES1   0.0000
    14 C14     -1.2687  -9.4629 -14.1942   C.3       1 RES1   0.0000
    15 H15     -0.9101  -9.7734 -15.1745   H         1 RES1   0.0000
    16 C16     -1.7379  -7.8785 -11.6505   C.3       1 RES1   0.0000
    17 H17     -2.3119  -7.2069 -11.0155   H         1 RES1   0.0000
    18 H18     -2.3144  -8.7913 -11.7861   H         1 RES1   0.0000
    19 H19     -0.8167  -8.1329 -11.1306   H         1 RES1   0.0000
    20 C20     -1.1594  -5.9688 -13.1688   C.2       1 RES1   0.0000
    21 C21     -1.4160  -4.9157 -12.1531   C.ar      1 RES1   0.0000
    22 O22     -0.3394  -7.4938 -16.1582   O.2       1 RES1   0.0000
    23 C23     -0.6815  -7.1157 -15.0454   C.2       1 RES1   0.0000
    24 N24     -1.4473  -7.2509 -12.9400   N.pl3     1 RES1   0.0000
    25 C25     -0.5034 -11.6566 -13.2307   C.3       1 RES1   0.0000
    26 H26      0.0875 -12.1104 -12.4364   H         1 RES1   0.0000
    27 H27     -0.1242 -11.9841 -14.1976   H         1 RES1   0.0000
    28 C28     -2.8097 -11.4449 -14.1183   C.3       1 RES1   0.0000
    29 H29     -2.4976 -11.7782 -15.1069   H         1 RES1   0.0000
    30 H30     -3.8410 -11.7472 -13.9421   H         1 RES1   0.0000
    31 C31     -2.7156  -9.9281 -14.0500   C.3       1 RES1   0.0000
    32 H32     -3.3099  -9.4978 -14.8547   H         1 RES1   0.0000
    33 H33     -3.1045  -9.5899 -13.0907   H         1 RES1   0.0000
    34 C34     -0.4023 -10.1443 -13.1344   C.3       1 RES1   0.0000
    35 H35     -0.7351  -9.8283 -12.1468   H         1 RES1   0.0000
    36 H36      0.6355  -9.8478 -13.2797   H         1 RES1   0.0000
    37 N37     -1.9318 -12.0753 -13.0890   N.4       1 RES1   1.0000
    38 H38     -2.2617 -11.8046 -12.1681   H         1 RES1   0.0000
    39 H39     -1.9877 -13.0841 -13.1855   H         1 RES1   0.0000
    40 N40     -2.5040  -5.0736 -11.3829   N.ar      1 RES1   0.0000
    41 C41     -0.9401  -2.8952 -11.0360   C.ar      1 RES1   0.0000
    42 H42     -0.3048  -2.0264 -10.8983   H         1 RES1   0.0000
    43 N43     -3.8600  -4.2605  -9.7221   N.pl3     1 RES1   0.0000
    44 H44     -4.0382  -3.5643  -8.9983   H         1 RES1   0.0000
    45 C45     -0.5883  -3.8123 -12.0057   C.ar      1 RES1   0.0000
    46 H46      0.2923  -3.6750 -12.6245   H         1 RES1   0.0000
    47 C47     -2.7605  -4.1147 -10.4787   C.ar      1 RES1   0.0000
    48 N48     -2.0225  -3.0172 -10.2566   N.ar      1 RES1   0.0000
    49 C49     -4.7846  -5.3889  -9.8288   C.3       1 RES1   0.0000
    50 H50     -4.7491  -5.7776 -10.8583   H         1 RES1   0.0000
    51 C51     -6.2140  -4.9970  -9.5100   C.ar      1 RES1   0.0000
    52 C52     -4.2958  -6.4783  -8.8814   C.3       1 RES1   0.0000
    53 H53     -4.9318  -7.3587  -8.9443   H         1 RES1   0.0000
    54 H54     -3.2786  -6.7770  -9.1262   H         1 RES1   0.0000
    55 H55     -4.3067  -6.1257  -7.8522   H         1 RES1   0.0000
    56 C56     -8.8406  -4.2870  -8.9124   C.ar      1 RES1   0.0000
    57 H57     -9.8634  -4.0098  -8.6793   H         1 RES1   0.0000
    58 C58     -6.8925  -5.6026  -8.4622   C.ar      1 RES1   0.0000
    59 H59     -6.3941  -6.3621  -7.8689   H         1 RES1   0.0000
    60 C60     -6.8751  -4.0305 -10.2555   C.ar      1 RES1   0.0000
    61 H61     -6.3655  -3.5443 -11.0808   H         1 RES1   0.0000
    62 C62     -8.1805  -3.6783  -9.9571   C.ar      1 RES1   0.0000
    63 H63     -8.6844  -2.9208 -10.5481   H         1 RES1   0.0000
    64 C64     -8.1975  -5.2487  -8.1647   C.ar      1 RES1   0.0000
    65 H65     -8.7144  -5.7300  -7.3412   H         1 RES1   0.0000
@<TRIPOS>BOND
     1     1     5   ar
     2     1     6   ar
     3     1     2    1
     4     3     8   ar
     5     3     9   ar
     6     3     4    1
     7     5     9   ar
     8     5    11    1
     9     6     8   ar
    10     6     7    1
    11     8    12    1
    12     9    10    1
    13    11    20    2
    14    11    23    1
    15    13    14    1
    16    13    23   am
    17    13    24    1
    18    14    31    1
    19    14    34    1
    20    14    15    1
    21    16    24    1
    22    16    17    1
    23    16    18    1
    24    16    19    1
    25    20    21    1
    26    20    24    1
    27    21    40   ar
    28    21    45   ar
    29    22    23    2
    30    25    34    1
    31    25    37    1
    32    25    26    1
    33    25    27    1
    34    28    31    1
    35    28    37    1
    36    28    29    1
    37    28    30    1
    38    31    32    1
    39    31    33    1
    40    34    35    1
    41    34    36    1
    42    37    38    1
    43    37    39    1
    44    40    47   ar
    45    41    45   ar
    46    41    48   ar
    47    41    42    1
    48    43    47    1
    49    43    49    1
    50    43    44    1
    51    45    46    1
    52    47    48   ar
    53    49    51    1
    54    49    52    1
    55    49    50    1
    56    51    58   ar
    57    51    60   ar
    58    52    53    1
    59    52    54    1
    60    52    55    1
    61    56    62   ar
    62    56    64   ar
    63    56    57    1
    64    58    64   ar
    65    58    59    1
    66    60    62   ar
    67    60    61    1
    68    62    63    1
    69    64    65    1
@<TRIPOS>SUBSTRUCTURE
     1 RES1        1 GROUP             0 ****  ****    0  
@<TRIPOS>MOLECULE
LIGAND_00422
    65    69     1     0     0
SMALL
USER_CHARGES
****
Generated from the CSD

@<TRIPOS>ATOM
     1 C1      -0.0619  -3.9114 -15.8981   C.ar      1 RES1   0.0000
     2 H2      -0.8415  -4.2908 -16.5499   H         1 RES1   0.0000
     3 C3       1.9031  -2.9030 -14.2386   C.ar      1 RES1   0.0000
     4 H4       2.6707  -2.4966 -13.5884   H         1 RES1   0.0000
     5 C5       0.2514  -4.6026 -14.7316   C.ar      1 RES1   0.0000
     6 C6       0.5972  -2.7445 -16.2424   C.ar      1 RES1   0.0000
     7 H7       0.3526  -2.2178 -17.1587   H         1 RES1   0.0000
     8 C8       1.5624  -2.2697 -15.3997   C.ar      1 RES1   0.0000
     9 C9       1.2463  -4.0756 -13.9129   C.ar      1 RES1   0.0000
    10 H10      1.5198  -4.5927 -13.0003   H         1 RES1   0.0000
    11 C11     -0.4564  -5.8658 -14.3435   C.2       1 RES1   0.0000
    12 F12      2.2109  -1.1196 -15.7292   F         1 RES1   0.0000
    13 N13     -1.2978  -7.9183 -14.1950   N.am      1 RES1   0.0000
    14 C14     -1.6475  -9.3661 -14.3902   C.3       1 RES1   0.0000
    15 H15     -1.1921  -9.7012 -15.3210   H         1 RES1   0.0000
    16 C16     -2.2902  -7.7955 -11.8760   C.3       1 RES1   0.0000
    17 H17     -2.9097  -7.0731 -11.3486   H         1 RES1   0.0000
    18 H18     -2.9165  -8.6418 -12.1509   H         1 RES1   0.0000
    19 H19     -1.5230  -8.1495 -11.1906   H         1 RES1   0.0000
    20 C20     -1.1594  -5.9688 -13.1688   C.2       1 RES1   0.0000
    21 C21     -1.4160  -4.9157 -12.1531   C.ar      1 RES1   0.0000
    22 O22     -0.0891  -7.5274 -16.0602   O.2       1 RES1   0.0000
    23 C23     -0.5537  -7.1279 -15.0005   C.2       1 RES1   0.0000
    24 N24     -1.6840  -7.1905 -13.0625   N.pl3     1 RES1   0.0000
    25 C25     -1.4030 -11.6854 -13.4478   C.3       1 RES1   0.0000
    26 H26     -1.0251 -12.2554 -12.6003   H         1 RES1   0.0000
    27 H27     -0.9324 -12.0409 -14.3632   H         1 RES1   0.0000
    28 C28     -3.4763 -11.0665 -14.6605   C.3       1 RES1   0.0000
    29 H29     -3.0685 -11.4161 -15.6078   H         1 RES1   0.0000
    30 H30     -4.5572 -11.1990 -14.6596   H         1 RES1   0.0000
    31 C31     -3.1542  -9.5892 -14.4930   C.3       1 RES1   0.0000
    32 H32     -3.5375  -9.0415 -15.3526   H         1 RES1   0.0000
    33 H33     -3.6314  -9.2213 -13.5859   H         1 RES1   0.0000
    34 C34     -1.0794 -10.2144 -13.2518   C.3       1 RES1   0.0000
    35 H35     -1.5100  -9.8785 -12.3097   H         1 RES1   0.0000
    36 H36      0.0021 -10.0897 -13.2216   H         1 RES1   0.0000
    37 N37     -2.8840 -11.8655 -13.5476   N.4       1 RES1   1.0000
    38 H38     -3.3084 -11.5727 -12.6733   H         1 RES1   0.0000
    39 H39     -3.0835 -12.8476 -13.7084   H         1 RES1   0.0000
    40 N40     -1.4457  -5.3100 -10.8704   N.ar      1 RES1   0.0000
    41 C41     -1.8713  -2.7071 -11.4663   C.ar      1 RES1   0.0000
    42 H42     -2.0353  -1.6631 -11.7123   H         1 RES1   0.0000
    43 N43     -1.7536  -4.7680  -8.6637   N.pl3     1 RES1   0.0000
    44 H44     -1.6466  -5.7630  -8.4664   H         1 RES1   0.0000
    45 C45     -1.6289  -3.5895 -12.4997   C.ar      1 RES1   0.0000
    46 H46     -1.6086  -3.2613 -13.5337   H         1 RES1   0.0000
    47 C47     -1.7025  -4.3713  -9.9453   C.ar      1 RES1   0.0000
    48 N48     -1.9163  -3.0679 -10.1773   N.ar      1 RES1   0.0000
    49 C49     -2.0159  -3.8716  -7.5380   C.3       1 RES1   0.0000
    50 H50     -1.6694  -2.8610  -7.8040   H         1 RES1   0.0000
    51 C51     -1.3037  -4.3087  -6.2730   C.ar      1 RES1   0.0000
    52 C52     -3.5245  -3.8269  -7.3244   C.3       1 RES1   0.0000
    53 H53     -3.7799  -3.1459  -6.5152   H         1 RES1   0.0000
    54 H54     -4.0335  -3.4893  -8.2247   H         1 RES1   0.0000
    55 H55     -3.9058  -4.8135  -7.0695   H         1 RES1   0.0000
    56 C56     -0.0088  -5.1132  -3.9414   C.ar      1 RES1   0.0000
    57 H57      0.4956  -5.4273  -3.0336   H         1 RES1   0.0000
    58 C58     -2.0266  -4.6180  -5.1298   C.ar      1 RES1   0.0000
    59 H59     -3.1090  -4.5452  -5.1442   H         1 RES1   0.0000
    60 C60      0.0802  -4.4069  -6.2276   C.ar      1 RES1   0.0000
    61 H61      0.6667  -4.1684  -7.1086   H         1 RES1   0.0000
    62 C62      0.7224  -4.8073  -5.0680   C.ar      1 RES1   0.0000
    63 H63      1.8047  -4.8801  -5.0474   H         1 RES1   0.0000
    64 C64     -1.3827  -5.0189  -3.9716   C.ar      1 RES1   0.0000
    65 H65     -1.9618  -5.2593  -3.0861   H         1 RES1   0.0000
@<TRIPOS>BOND
     1     1     5   ar
     2     1     6   ar
     3     1     2    1
     4     3     8   ar
     5     3     9   ar
     6     3     4    1
     7     5     9   ar
     8     5    11    1
     9     6     8   ar
    10     6     7    1
    11     8    12    1
    12     9    10    1
    13    11    20    2
    14    11    23    1
    15    13    14    1
    16    13    23   am
    17    13    24    1
    18    14    31    1
    19    14    34    1
    20    14    15    1
    21    16    24    1
    22    16    17    1
    23    16    18    1
    24    16    19    1
    25    20    21    1
    26    20    24    1
    27    21    40   ar
    28    21    45   ar
    29    22    23    2
    30    25    34    1
    31    25    37    1
    32    25    26    1
    33    25    27    1
    34    28    31    1
    35    28    37    1
    36    28    29    1
    37    28    30    1
    38    31    32    1
    39    31    33    1
    40    34    35    1
    41    34    36    1
    42    37    38    1
    43    37    39    1
    44    40    47   ar
    45    41    45   ar
    46    41    48   ar
    47    41    42    1
    48    43    47    1
    49    43    49    1
    50    43    44    1
    51    45    46    1
    52    47    48   ar
    53    49    51    1
    54    49    52    1
    55    49    50    1
    56    51    58   ar
    57    51    60   ar
    58    52    53    1
    59    52    54    1
    60    52    55    1
    61    56    62   ar
    62    56    64   ar
    63    56    57    1
    64    58    64   ar
    65    58    59    1
    66    60    62   ar
    67    60    61    1
    68    62    63    1
    69    64    65    1
@<TRIPOS>SUBSTRUCTURE
     1 RES1        1 GROUP             0 ****  ****    0  
@<TRIPOS>MOLECULE
LIGAND_00423
    65    69     1     0     0
SMALL
USER_CHARGES
****
Generated from the CSD

@<TRIPOS>ATOM
     1 C1      -0.0617  -3.9114 -15.8980   C.ar      1 RES1   0.0000
     2 H2      -0.8412  -4.2908 -16.5498   H         1 RES1   0.0000
     3 C3       1.9032  -2.9032 -14.2384   C.ar      1 RES1   0.0000
     4 H4       2.6709  -2.4968 -13.5882   H         1 RES1   0.0000
     5 C5       0.2515  -4.6027 -14.7315   C.ar      1 RES1   0.0000
     6 C6       0.5974  -2.7445 -16.2423   C.ar      1 RES1   0.0000
     7 H7       0.3529  -2.2178 -17.1586   H         1 RES1   0.0000
     8 C8       1.5626  -2.2698 -15.3995   C.ar      1 RES1   0.0000
     9 C9       1.2464  -4.0756 -13.9128   C.ar      1 RES1   0.0000
    10 H10      1.5198  -4.5928 -13.0002   H         1 RES1   0.0000
    11 C11     -0.4564  -5.8658 -14.3434   C.2       1 RES1   0.0000
    12 F12      2.2112  -1.1198 -15.7290   F         1 RES1   0.0000
    13 N13     -1.2978  -7.9183 -14.1951   N.am      1 RES1   0.0000
    14 C14     -1.6476  -9.3661 -14.3903   C.3       1 RES1   0.0000
    15 H15     -1.1921  -9.7011 -15.3210   H         1 RES1   0.0000
    16 C16     -2.2903  -7.7955 -11.8761   C.3       1 RES1   0.0000
    17 H17     -2.9098  -7.0731 -11.3487   H         1 RES1   0.0000
    18 H18     -2.9166  -8.6417 -12.1510   H         1 RES1   0.0000
    19 H19     -1.5232  -8.1496 -11.1907   H         1 RES1   0.0000
    20 C20     -1.1594  -5.9688 -13.1688   C.2       1 RES1   0.0000
    21 C21     -1.4160  -4.9157 -12.1531   C.ar      1 RES1   0.0000
    22 O22     -0.0891  -7.5274 -16.0602   O.2       1 RES1   0.0000
    23 C23     -0.5537  -7.1279 -15.0005   C.2       1 RES1   0.0000
    24 N24     -1.6841  -7.1904 -13.0626   N.pl3     1 RES1   0.0000
    25 C25     -1.4032 -11.6853 -13.4478   C.3       1 RES1   0.0000
    26 H26     -1.0254 -12.2554 -12.6003   H         1 RES1   0.0000
    27 H27     -0.9326 -12.0409 -14.3632   H         1 RES1   0.0000
    28 C28     -3.4764 -11.0664 -14.6606   C.3       1 RES1   0.0000
    29 H29     -3.0686 -11.4160 -15.6080   H         1 RES1   0.0000
    30 H30     -4.5573 -11.1989 -14.6598   H         1 RES1   0.0000
    31 C31     -3.1543  -9.5891 -14.4931   C.3       1 RES1   0.0000
    32 H32     -3.5376  -9.0414 -15.3528   H         1 RES1   0.0000
    33 H33     -3.6316  -9.2212 -13.5861   H         1 RES1   0.0000
    34 C34     -1.0795 -10.2144 -13.2519   C.3       1 RES1   0.0000
    35 H35     -1.5102  -9.8785 -12.3097   H         1 RES1   0.0000
    36 H36      0.0019 -10.0898 -13.2216   H         1 RES1   0.0000
    37 N37     -2.8842 -11.8654 -13.5478   N.4       1 RES1   1.0000
    38 H38     -3.3086 -11.5726 -12.6735   H         1 RES1   0.0000
    39 H39     -3.0838 -12.8476 -13.7085   H         1 RES1   0.0000
    40 N40     -1.4457  -5.3100 -10.8704   N.ar      1 RES1   0.0000
    41 C41     -1.8713  -2.7071 -11.4663   C.ar      1 RES1   0.0000
    42 H42     -2.0353  -1.6631 -11.7123   H         1 RES1   0.0000
    43 N43     -1.7536  -4.7680  -8.6637   N.pl3     1 RES1   0.0000
    44 H44     -1.8986  -4.0559  -7.9480   H         1 RES1   0.0000
    45 C45     -1.6289  -3.5895 -12.4997   C.ar      1 RES1   0.0000
    46 H46     -1.6086  -3.2613 -13.5337   H         1 RES1   0.0000
    47 C47     -1.7025  -4.3713  -9.9453   C.ar      1 RES1   0.0000
    48 N48     -1.9163  -3.0679 -10.1773   N.ar      1 RES1   0.0000
    49 C49     -1.5515  -6.1485  -8.2243   C.3       1 RES1   0.0000
    50 H50     -1.8504  -6.8253  -9.0398   H         1 RES1   0.0000
    51 C51     -2.3668  -6.4880  -6.9920   C.ar      1 RES1   0.0000
    52 C52     -0.0623  -6.3360  -7.9591   C.3       1 RES1   0.0000
    53 H53      0.1506  -7.3598  -7.6588   H         1 RES1   0.0000
    54 H54      0.5208  -6.1163  -8.8510   H         1 RES1   0.0000
    55 H55      0.2726  -5.6734  -7.1638   H         1 RES1   0.0000
    56 C56     -3.8518  -7.1150  -4.7200   C.ar      1 RES1   0.0000
    57 H57     -4.4303  -7.3585  -3.8350   H         1 RES1   0.0000
    58 C58     -1.7391  -6.8926  -5.8227   C.ar      1 RES1   0.0000
    59 H59     -0.6570  -6.9661  -5.7932   H         1 RES1   0.0000
    60 C60     -3.7524  -6.4052  -7.0047   C.ar      1 RES1   0.0000
    61 H61     -4.2656  -6.0928  -7.9081   H         1 RES1   0.0000
    62 C62     -4.4892  -6.7168  -5.8745   C.ar      1 RES1   0.0000
    63 H63     -5.5716  -6.6468  -5.8988   H         1 RES1   0.0000
    64 C64     -2.4774  -7.2031  -4.6934   C.ar      1 RES1   0.0000
    65 H65     -1.9721  -7.5162  -3.7858   H         1 RES1   0.0000
@<TRIPOS>BOND
     1     1     5   ar
     2     1     6   ar
     3     1     2    1
     4     3     8   ar
     5     3     9   ar
     6     3     4    1
     7     5     9   ar
     8     5    11    1
     9     6     8   ar
    10     6     7    1
    11     8    12    1
    12     9    10    1
    13    11    20    2
    14    11    23    1
    15    13    14    1
    16    13    23   am
    17    13    24    1
    18    14    31    1
    19    14    34    1
    20    14    15    1
    21    16    24    1
    22    16    17    1
    23    16    18    1
    24    16    19    1
    25    20    21    1
    26    20    24    1
    27    21    40   ar
    28    21    45   ar
    29    22    23    2
    30    25    34    1
    31    25    37    1
    32    25    26    1
    33    25    27    1
    34    28    31    1
    35    28    37    1
    36    28    29    1
    37    28    30    1
    38    31    32    1
    39    31    33    1
    40    34    35    1
    41    34    36    1
    42    37    38    1
    43    37    39    1
    44    40    47   ar
    45    41    45   ar
    46    41    48   ar
    47    41    42    1
    48    43    47    1
    49    43    49    1
    50    43    44    1
    51    45    46    1
    52    47    48   ar
    53    49    51    1
    54    49    52    1
    55    49    50    1
    56    51    58   ar
    57    51    60   ar
    58    52    53    1
    59    52    54    1
    60    52    55    1
    61    56    62   ar
    62    56    64   ar
    63    56    57    1
    64    58    64   ar
    65    58    59    1
    66    60    62   ar
    67    60    61    1
    68    62    63    1
    69    64    65    1
@<TRIPOS>SUBSTRUCTURE
     1 RES1        1 GROUP             0 ****  ****    0  
@<TRIPOS>MOLECULE
LIGAND_00424
    65    69     1     0     0
SMALL
USER_CHARGES
****
Generated from the CSD

@<TRIPOS>ATOM
     1 C1      -3.2084  -4.1550 -15.8038   C.ar      1 RES1   0.0000
     2 H2      -4.0424  -4.8127 -15.5838   H         1 RES1   0.0000
     3 C3      -1.1083  -2.4441 -16.3464   C.ar      1 RES1   0.0000
     4 H4      -0.2900  -1.7634 -16.5566   H         1 RES1   0.0000
     5 C5      -1.9284  -4.5109 -15.3894   C.ar      1 RES1   0.0000
     6 C6      -3.4416  -2.9746 -16.4872   C.ar      1 RES1   0.0000
     7 H7      -4.4416  -2.7104 -16.8147   H         1 RES1   0.0000
     8 C8      -2.3828  -2.1482 -16.7381   C.ar      1 RES1   0.0000
     9 C9      -0.8866  -3.6332 -15.6762   C.ar      1 RES1   0.0000
    10 H10      0.1239  -3.8832 -15.3737   H         1 RES1   0.0000
    11 C11     -1.6609  -5.7843 -14.6451   C.2       1 RES1   0.0000
    12 F12     -2.6056  -0.9830 -17.4049   F         1 RES1   0.0000
    13 N13     -1.2009  -7.9305 -14.1569   N.am      1 RES1   0.0000
    14 C14     -1.4249  -9.4102 -14.2874   C.3       1 RES1   0.0000
    15 H15     -1.1556  -9.7046 -15.3006   H         1 RES1   0.0000
    16 C16     -0.7885  -7.6538 -11.7918   C.3       1 RES1   0.0000
    17 H17     -1.3261  -8.3837 -11.1901   H         1 RES1   0.0000
    18 H18      0.1618  -8.0933 -12.0880   H         1 RES1   0.0000
    19 H19     -0.5815  -6.7863 -11.1686   H         1 RES1   0.0000
    20 C20     -1.7513  -5.9390 -13.3057   C.2       1 RES1   0.0000
    21 C21     -2.0254  -4.9138 -12.2663   C.ar      1 RES1   0.0000
    22 O22     -1.2295  -7.4038 -16.3934   O.2       1 RES1   0.0000
    23 C23     -1.3283  -7.0568 -15.2237   C.2       1 RES1   0.0000
    24 N24     -1.5729  -7.2713 -12.9663   N.3       1 RES1   0.0000
    25 C25     -0.7236 -11.6771 -13.4532   C.3       1 RES1   0.0000
    26 H26     -0.1056 -12.1920 -12.7191   H         1 RES1   0.0000
    27 H27     -0.4338 -11.9901 -14.4552   H         1 RES1   0.0000
    28 C28     -3.0706 -11.3036 -14.1631   C.3       1 RES1   0.0000
    29 H29     -2.8495 -11.6179 -15.1821   H         1 RES1   0.0000
    30 H30     -4.1027 -11.5536 -13.9221   H         1 RES1   0.0000
    31 C31     -2.8828  -9.7980 -14.0531   C.3       1 RES1   0.0000
    32 H32     -3.5063  -9.3060 -14.7981   H         1 RES1   0.0000
    33 H33     -3.1821  -9.4736 -13.0576   H         1 RES1   0.0000
    34 C34     -0.5271 -10.1774 -13.3159   C.3       1 RES1   0.0000
    35 H35     -0.7700  -9.8792 -12.2971   H         1 RES1   0.0000
    36 H36      0.5133  -9.9347 -13.5269   H         1 RES1   0.0000
    37 N37     -2.1605 -12.0194 -13.2214   N.4       1 RES1   1.0000
    38 H38     -2.4078 -11.7643 -12.2706   H         1 RES1   0.0000
    39 H39     -2.2823 -13.0194 -13.3459   H         1 RES1   0.0000
    40 N40     -2.7110  -5.3194 -11.1860   N.ar      1 RES1   0.0000
    41 C41     -1.9384  -2.7348 -11.3712   C.ar      1 RES1   0.0000
    42 H42     -1.6199  -1.7005 -11.4495   H         1 RES1   0.0000
    43 N43     -3.6913  -4.7948  -9.1804   N.pl3     1 RES1   0.0000
    44 H44     -3.8668  -4.1132  -8.4422   H         1 RES1   0.0000
    45 C45     -1.6108  -3.5967 -12.3985   C.ar      1 RES1   0.0000
    46 H46     -1.0576  -3.2589 -13.2686   H         1 RES1   0.0000
    47 C47     -2.9872  -4.3954 -10.2516   C.ar      1 RES1   0.0000
    48 N48     -2.6281  -3.1038 -10.2841   N.ar      1 RES1   0.0000
    49 C49     -4.1685  -6.1624  -8.9766   C.3       1 RES1   0.0000
    50 H50     -3.4430  -6.8592  -9.4243   H         1 RES1   0.0000
    51 C51     -5.5238  -6.4024  -9.6121   C.ar      1 RES1   0.0000
    52 C52     -4.2204  -6.4148  -7.4743   C.3       1 RES1   0.0000
    53 H53     -4.7233  -7.3550  -7.2578   H         1 RES1   0.0000
    54 H54     -3.2179  -6.4623  -7.0544   H         1 RES1   0.0000
    55 H55     -4.7617  -5.6175  -6.9693   H         1 RES1   0.0000
    56 C56     -8.0212  -6.8387 -10.7668   C.ar      1 RES1   0.0000
    57 H57     -8.9937  -7.0079 -11.2169   H         1 RES1   0.0000
    58 C58     -6.6885  -6.1558  -8.8996   C.ar      1 RES1   0.0000
    59 H59     -6.6256  -5.7891  -7.8804   H         1 RES1   0.0000
    60 C60     -5.6315  -6.8741 -10.9132   C.ar      1 RES1   0.0000
    61 H61     -4.7346  -7.0759 -11.4894   H         1 RES1   0.0000
    62 C62     -6.8735  -7.0901 -11.4860   C.ar      1 RES1   0.0000
    63 H63     -6.9423  -7.4584 -12.5041   H         1 RES1   0.0000
    64 C64     -7.9295  -6.3716  -9.4741   C.ar      1 RES1   0.0000
    65 H65     -8.8313  -6.1724  -8.9049   H         1 RES1   0.0000
@<TRIPOS>BOND
     1     1     5   ar
     2     1     6   ar
     3     1     2    1
     4     3     8   ar
     5     3     9   ar
     6     3     4    1
     7     5     9   ar
     8     5    11    1
     9     6     8   ar
    10     6     7    1
    11     8    12    1
    12     9    10    1
    13    11    20    2
    14    11    23    1
    15    13    14    1
    16    13    23   am
    17    13    24    1
    18    14    31    1
    19    14    34    1
    20    14    15    1
    21    16    24    1
    22    16    17    1
    23    16    18    1
    24    16    19    1
    25    20    21    1
    26    20    24    1
    27    21    40   ar
    28    21    45   ar
    29    22    23    2
    30    25    34    1
    31    25    37    1
    32    25    26    1
    33    25    27    1
    34    28    31    1
    35    28    37    1
    36    28    29    1
    37    28    30    1
    38    31    32    1
    39    31    33    1
    40    34    35    1
    41    34    36    1
    42    37    38    1
    43    37    39    1
    44    40    47   ar
    45    41    45   ar
    46    41    48   ar
    47    41    42    1
    48    43    47    1
    49    43    49    1
    50    43    44    1
    51    45    46    1
    52    47    48   ar
    53    49    51    1
    54    49    52    1
    55    49    50    1
    56    51    58   ar
    57    51    60   ar
    58    52    53    1
    59    52    54    1
    60    52    55    1
    61    56    62   ar
    62    56    64   ar
    63    56    57    1
    64    58    64   ar
    65    58    59    1
    66    60    62   ar
    67    60    61    1
    68    62    63    1
    69    64    65    1
@<TRIPOS>SUBSTRUCTURE
     1 RES1        1 GROUP             0 ****  ****    0  
@<TRIPOS>MOLECULE
LIGAND_00425
    65    69     1     0     0
SMALL
USER_CHARGES
****
Generated from the CSD

@<TRIPOS>ATOM
     1 C1       0.1132  -3.8882 -12.3738   C.ar      1 RES1   0.0000
     2 H2       1.0601  -4.2869 -12.7215   H         1 RES1   0.0000
     3 C3      -2.2874  -2.8315 -11.5063   C.ar      1 RES1   0.0000
     4 H4      -3.2267  -2.4062 -11.1687   H         1 RES1   0.0000
     5 C5      -1.0646  -4.5701 -12.6647   C.ar      1 RES1   0.0000
     6 C6       0.1018  -2.7068 -11.6536   C.ar      1 RES1   0.0000
     7 H7       1.0261  -2.1874 -11.4234   H         1 RES1   0.0000
     8 C8      -1.1016  -2.2082 -11.2407   C.ar      1 RES1   0.0000
     9 C9      -2.2611  -4.0186 -12.2152   C.ar      1 RES1   0.0000
    10 H10     -3.1962  -4.5277 -12.4186   H         1 RES1   0.0000
    11 C11     -1.0685  -5.8489 -13.4470   C.2       1 RES1   0.0000
    12 F12     -1.1207  -1.0438 -10.5367   F         1 RES1   0.0000
    13 N13     -1.3102  -7.9281 -14.1961   N.am      1 RES1   0.0000
    14 C14     -1.6725  -9.3730 -14.3898   C.3       1 RES1   0.0000
    15 H15     -1.3492  -9.6718 -15.3858   H         1 RES1   0.0000
    16 C16     -0.5529  -7.6020 -16.5832   C.3       1 RES1   0.0000
    17 H17     -0.6621  -6.7674 -17.2726   H         1 RES1   0.0000
    18 H18      0.4303  -8.0419 -16.7372   H         1 RES1   0.0000
    19 H19     -1.3023  -8.3498 -16.8337   H         1 RES1   0.0000
    20 C20     -0.5870  -5.9122 -14.7311   C.2       1 RES1   0.0000
    21 C21      0.0604  -4.8376 -15.5265   C.ar      1 RES1   0.0000
    22 O22     -2.0484  -7.5929 -12.0901   O.2       1 RES1   0.0000
    23 C23     -1.5304  -7.1553 -13.1092   C.2       1 RES1   0.0000
    24 N24     -0.7113  -7.1551 -15.1988   N.pl3     1 RES1   0.0000
    25 C25     -1.2805 -11.7185 -13.5701   C.3       1 RES1   0.0000
    26 H26     -0.7833 -12.3111 -12.8036   H         1 RES1   0.0000
    27 H27     -0.9398 -12.0382 -14.5538   H         1 RES1   0.0000
    28 C28     -3.5078 -11.0864 -14.4598   C.3       1 RES1   0.0000
    29 H29     -3.2338 -11.3997 -15.4661   H         1 RES1   0.0000
    30 H30     -4.5769 -11.2323 -14.3126   H         1 RES1   0.0000
    31 C31     -3.1770  -9.6114 -14.2888   C.3       1 RES1   0.0000
    32 H32     -3.6810  -9.0407 -15.0673   H         1 RES1   0.0000
    33 H33     -3.5254  -9.2792 -13.3120   H         1 RES1   0.0000
    34 C34     -0.9441 -10.2508 -13.3713   C.3       1 RES1   0.0000
    35 H35     -1.2412  -9.9512 -12.3674   H         1 RES1   0.0000
    36 H36      0.1300 -10.1137 -13.4881   H         1 RES1   0.0000
    37 N37     -2.7594 -11.9138 -13.4684   N.4       1 RES1   1.0000
    38 H38     -3.0596 -11.6549 -12.5340   H         1 RES1   0.0000
    39 H39     -2.9718 -12.8925 -13.6330   H         1 RES1   0.0000
    40 N40     -0.4046  -3.5913 -15.3466   N.ar      1 RES1   0.0000
    41 C41      1.5970  -4.0162 -17.1142   C.ar      1 RES1   0.0000
    42 H42      2.4040  -4.1933 -17.8176   H         1 RES1   0.0000
    43 N43     -0.3230  -1.3716 -15.9161   N.pl3     1 RES1   0.0000
    44 H44     -1.1158  -1.2428 -15.2874   H         1 RES1   0.0000
    45 C45      1.0863  -5.0967 -16.4235   C.ar      1 RES1   0.0000
    46 H46      1.4677  -6.1007 -16.5770   H         1 RES1   0.0000
    47 C47      0.1554  -2.6154 -16.0793   C.ar      1 RES1   0.0000
    48 N48      1.1511  -2.7621 -16.9655   N.ar      1 RES1   0.0000
    49 C49      0.1807  -0.1992 -16.6312   C.3       1 RES1   0.0000
    50 H50      1.2329  -0.3770 -16.9026   H         1 RES1   0.0000
    51 C51      0.1045   1.0639 -15.7963   C.ar      1 RES1   0.0000
    52 C52     -0.6330  -0.0540 -17.9118   C.3       1 RES1   0.0000
    53 H53     -0.2775   0.7882 -18.5019   H         1 RES1   0.0000
    54 H54     -0.5579  -0.9512 -18.5226   H         1 RES1   0.0000
    55 H55     -1.6834   0.1128 -17.6827   H         1 RES1   0.0000
    56 C56     -0.0486   3.3796 -14.2553   C.ar      1 RES1   0.0000
    57 H57     -0.1076   4.2812 -13.6547   H         1 RES1   0.0000
    58 C58     -0.9275   1.2447 -14.8867   C.ar      1 RES1   0.0000
    59 H59     -1.6841   0.4752 -14.7748   H         1 RES1   0.0000
    60 C60      1.0580   2.0648 -15.9227   C.ar      1 RES1   0.0000
    61 H61      1.8732   1.9466 -16.6287   H         1 RES1   0.0000
    62 C62      0.9808   3.2151 -15.1558   C.ar      1 RES1   0.0000
    63 H63      1.7336   3.9887 -15.2648   H         1 RES1   0.0000
    64 C64     -1.0027   2.3953 -14.1202   C.ar      1 RES1   0.0000
    65 H65     -1.8147   2.5214 -13.4119   H         1 RES1   0.0000
@<TRIPOS>BOND
     1     1     5   ar
     2     1     6   ar
     3     1     2    1
     4     3     8   ar
     5     3     9   ar
     6     3     4    1
     7     5     9   ar
     8     5    11    1
     9     6     8   ar
    10     6     7    1
    11     8    12    1
    12     9    10    1
    13    11    20    2
    14    11    23    1
    15    13    14    1
    16    13    23   am
    17    13    24    1
    18    14    31    1
    19    14    34    1
    20    14    15    1
    21    16    24    1
    22    16    17    1
    23    16    18    1
    24    16    19    1
    25    20    21    1
    26    20    24    1
    27    21    40   ar
    28    21    45   ar
    29    22    23    2
    30    25    34    1
    31    25    37    1
    32    25    26    1
    33    25    27    1
    34    28    31    1
    35    28    37    1
    36    28    29    1
    37    28    30    1
    38    31    32    1
    39    31    33    1
    40    34    35    1
    41    34    36    1
    42    37    38    1
    43    37    39    1
    44    40    47   ar
    45    41    45   ar
    46    41    48   ar
    47    41    42    1
    48    43    47    1
    49    43    49    1
    50    43    44    1
    51    45    46    1
    52    47    48   ar
    53    49    51    1
    54    49    52    1
    55    49    50    1
    56    51    58   ar
    57    51    60   ar
    58    52    53    1
    59    52    54    1
    60    52    55    1
    61    56    62   ar
    62    56    64   ar
    63    56    57    1
    64    58    64   ar
    65    58    59    1
    66    60    62   ar
    67    60    61    1
    68    62    63    1
    69    64    65    1
@<TRIPOS>SUBSTRUCTURE
     1 RES1        1 GROUP             0 ****  ****    0  
@<TRIPOS>MOLECULE
LIGAND_00426
    65    69     1     0     0
SMALL
USER_CHARGES
****
Generated from the CSD

@<TRIPOS>ATOM
     1 C1      -1.1833  -4.1193 -11.6787   C.ar      1 RES1   0.0000
     2 H2      -0.6121  -4.8364 -11.0991   H         1 RES1   0.0000
     3 C3      -2.6058  -2.2606 -13.1461   C.ar      1 RES1   0.0000
     4 H4      -3.1574  -1.5225 -13.7189   H         1 RES1   0.0000
     5 C5      -1.6103  -4.4591 -12.9589   C.ar      1 RES1   0.0000
     6 C6      -1.4675  -2.8813 -11.1300   C.ar      1 RES1   0.0000
     7 H7      -1.1386  -2.6290 -10.1274   H         1 RES1   0.0000
     8 C8      -2.1706  -1.9826 -11.8817   C.ar      1 RES1   0.0000
     9 C9      -2.3269  -3.5064 -13.6776   C.ar      1 RES1   0.0000
    10 H10     -2.6804  -3.7411 -14.6751   H         1 RES1   0.0000
    11 C11     -1.3069  -5.7948 -13.5680   C.2       1 RES1   0.0000
    12 F12     -2.4490  -0.7610 -11.3506   F         1 RES1   0.0000
    13 N13     -1.1417  -7.9499 -14.0886   N.am      1 RES1   0.0000
    14 C14     -1.2782  -9.4440 -14.1647   C.3       1 RES1   0.0000
    15 H15     -0.7481  -9.7868 -15.0521   H         1 RES1   0.0000
    16 C16      0.0070  -7.7510 -16.3288   C.3       1 RES1   0.0000
    17 H17      0.8372  -7.1656 -16.7186   H         1 RES1   0.0000
    18 H18      0.3463  -8.7771 -16.2025   H         1 RES1   0.0000
    19 H19     -0.7897  -7.7457 -17.0696   H         1 RES1   0.0000
    20 C20     -0.5870  -5.9122 -14.7311   C.2       1 RES1   0.0000
    21 C21      0.0604  -4.8376 -15.5265   C.ar      1 RES1   0.0000
    22 O22     -2.3011  -7.5222 -12.2003   O.2       1 RES1   0.0000
    23 C23     -1.6582  -7.1153 -13.1592   C.2       1 RES1   0.0000
    24 N24     -0.4649  -7.1994 -15.0582   N.pl3     1 RES1   0.0000
    25 C25     -0.7442 -11.6183 -13.0183   C.3       1 RES1   0.0000
    26 H26     -0.3201 -12.0562 -12.1160   H         1 RES1   0.0000
    27 H27     -0.1968 -11.9779 -13.8883   H         1 RES1   0.0000
    28 C28     -2.8402 -11.4042 -14.3273   C.3       1 RES1   0.0000
    29 H29     -2.3546 -11.7696 -15.2310   H         1 RES1   0.0000
    30 H30     -3.8912 -11.6889 -14.3395   H         1 RES1   0.0000
    31 C31     -2.7343  -9.8874 -14.2820   C.3       1 RES1   0.0000
    32 H32     -3.1603  -9.4732 -15.1946   H         1 RES1   0.0000
    33 H33     -3.2897  -9.5171 -13.4215   H         1 RES1   0.0000
    34 C34     -0.6369 -10.1051 -12.9441   C.3       1 RES1   0.0000
    35 H35     -1.1429  -9.7569 -12.0448   H         1 RES1   0.0000
    36 H36      0.4147  -9.8254 -12.9002   H         1 RES1   0.0000
    37 N37     -2.1810 -12.0154 -13.1358   N.4       1 RES1   1.0000
    38 H38     -2.6725 -11.7145 -12.3003   H         1 RES1   0.0000
    39 H39     -2.2352 -13.0258 -13.2148   H         1 RES1   0.0000
    40 N40      0.6498  -3.8488 -14.8362   N.ar      1 RES1   0.0000
    41 C41      0.6755  -3.7756 -17.5391   C.ar      1 RES1   0.0000
    42 H42      0.6871  -3.7557 -18.6239   H         1 RES1   0.0000
    43 N43      1.7873  -1.8578 -14.8554   N.pl3     1 RES1   0.0000
    44 H44      1.7161  -1.8761 -13.8381   H         1 RES1   0.0000
    45 C45      0.0524  -4.8367 -16.9137   C.ar      1 RES1   0.0000
    46 H46     -0.4228  -5.6305 -17.4804   H         1 RES1   0.0000
    47 C47      1.2159  -2.8584 -15.5445   C.ar      1 RES1   0.0000
    48 N48      1.2653  -2.7688 -16.8816   N.ar      1 RES1   0.0000
    49 C49      2.4509  -0.7106 -15.4744   C.3       1 RES1   0.0000
    50 H50      2.8279  -1.0131 -16.4637   H         1 RES1   0.0000
    51 C51      3.6162  -0.2022 -14.6487   C.ar      1 RES1   0.0000
    52 C52      1.4042   0.3806 -15.6667   C.3       1 RES1   0.0000
    53 H53      1.8382   1.2502 -16.1557   H         1 RES1   0.0000
    54 H54      0.5799   0.0231 -16.2802   H         1 RES1   0.0000
    55 H55      0.9998   0.6982 -14.7079   H         1 RES1   0.0000
    56 C56      5.7500   0.7280 -13.1183   C.ar      1 RES1   0.0000
    57 H57      6.5815   1.0897 -12.5224   H         1 RES1   0.0000
    58 C58      3.5785  -0.2682 -13.2633   C.ar      1 RES1   0.0000
    59 H59      2.7073  -0.6867 -12.7703   H         1 RES1   0.0000
    60 C60      4.7410   0.3405 -15.2548   C.ar      1 RES1   0.0000
    61 H61      4.7925   0.4042 -16.3367   H         1 RES1   0.0000
    62 C62      5.8010   0.8021 -14.4929   C.ar      1 RES1   0.0000
    63 H63      6.6739   1.2231 -14.9804   H         1 RES1   0.0000
    64 C64      4.6397   0.1932 -12.5030   C.ar      1 RES1   0.0000
    65 H65      4.5962   0.1332 -11.4207   H         1 RES1   0.0000
@<TRIPOS>BOND
     1     1     5   ar
     2     1     6   ar
     3     1     2    1
     4     3     8   ar
     5     3     9   ar
     6     3     4    1
     7     5     9   ar
     8     5    11    1
     9     6     8   ar
    10     6     7    1
    11     8    12    1
    12     9    10    1
    13    11    20    2
    14    11    23    1
    15    13    14    1
    16    13    23   am
    17    13    24    1
    18    14    31    1
    19    14    34    1
    20    14    15    1
    21    16    24    1
    22    16    17    1
    23    16    18    1
    24    16    19    1
    25    20    21    1
    26    20    24    1
    27    21    40   ar
    28    21    45   ar
    29    22    23    2
    30    25    34    1
    31    25    37    1
    32    25    26    1
    33    25    27    1
    34    28    31    1
    35    28    37    1
    36    28    29    1
    37    28    30    1
    38    31    32    1
    39    31    33    1
    40    34    35    1
    41    34    36    1
    42    37    38    1
    43    37    39    1
    44    40    47   ar
    45    41    45   ar
    46    41    48   ar
    47    41    42    1
    48    43    47    1
    49    43    49    1
    50    43    44    1
    51    45    46    1
    52    47    48   ar
    53    49    51    1
    54    49    52    1
    55    49    50    1
    56    51    58   ar
    57    51    60   ar
    58    52    53    1
    59    52    54    1
    60    52    55    1
    61    56    62   ar
    62    56    64   ar
    63    56    57    1
    64    58    64   ar
    65    58    59    1
    66    60    62   ar
    67    60    61    1
    68    62    63    1
    69    64    65    1
@<TRIPOS>SUBSTRUCTURE
     1 RES1        1 GROUP             0 ****  ****    0  
@<TRIPOS>MOLECULE
LIGAND_00427
    65    69     1     0     0
SMALL
USER_CHARGES
****
Generated from the CSD

@<TRIPOS>ATOM
     1 C1      -1.1833  -4.1193 -11.6787   C.ar      1 RES1   0.0000
     2 H2      -0.6121  -4.8364 -11.0991   H         1 RES1   0.0000
     3 C3      -2.6058  -2.2606 -13.1461   C.ar      1 RES1   0.0000
     4 H4      -3.1574  -1.5225 -13.7190   H         1 RES1   0.0000
     5 C5      -1.6103  -4.4591 -12.9589   C.ar      1 RES1   0.0000
     6 C6      -1.4675  -2.8813 -11.1300   C.ar      1 RES1   0.0000
     7 H7      -1.1387  -2.6290 -10.1274   H         1 RES1   0.0000
     8 C8      -2.1707  -1.9826 -11.8818   C.ar      1 RES1   0.0000
     9 C9      -2.3269  -3.5064 -13.6776   C.ar      1 RES1   0.0000
    10 H10     -2.6804  -3.7411 -14.6751   H         1 RES1   0.0000
    11 C11     -1.3069  -5.7948 -13.5680   C.2       1 RES1   0.0000
    12 F12     -2.4490  -0.7610 -11.3506   F         1 RES1   0.0000
    13 N13     -1.1417  -7.9499 -14.0886   N.am      1 RES1   0.0000
    14 C14     -1.2781  -9.4440 -14.1647   C.3       1 RES1   0.0000
    15 H15     -0.7481  -9.7868 -15.0521   H         1 RES1   0.0000
    16 C16      0.0071  -7.7510 -16.3288   C.3       1 RES1   0.0000
    17 H17      0.8372  -7.1656 -16.7186   H         1 RES1   0.0000
    18 H18      0.3463  -8.7771 -16.2025   H         1 RES1   0.0000
    19 H19     -0.7897  -7.7457 -17.0696   H         1 RES1   0.0000
    20 C20     -0.5870  -5.9122 -14.7311   C.2       1 RES1   0.0000
    21 C21      0.0604  -4.8376 -15.5265   C.ar      1 RES1   0.0000
    22 O22     -2.3011  -7.5222 -12.2004   O.2       1 RES1   0.0000
    23 C23     -1.6582  -7.1153 -13.1592   C.2       1 RES1   0.0000
    24 N24     -0.4649  -7.1994 -15.0582   N.pl3     1 RES1   0.0000
    25 C25     -0.7442 -11.6183 -13.0183   C.3       1 RES1   0.0000
    26 H26     -0.3200 -12.0562 -12.1160   H         1 RES1   0.0000
    27 H27     -0.1968 -11.9779 -13.8883   H         1 RES1   0.0000
    28 C28     -2.8401 -11.4042 -14.3273   C.3       1 RES1   0.0000
    29 H29     -2.3546 -11.7696 -15.2310   H         1 RES1   0.0000
    30 H30     -3.8912 -11.6889 -14.3395   H         1 RES1   0.0000
    31 C31     -2.7343  -9.8874 -14.2820   C.3       1 RES1   0.0000
    32 H32     -3.1603  -9.4732 -15.1946   H         1 RES1   0.0000
    33 H33     -3.2897  -9.5171 -13.4215   H         1 RES1   0.0000
    34 C34     -0.6369 -10.1051 -12.9441   C.3       1 RES1   0.0000
    35 H35     -1.1429  -9.7569 -12.0448   H         1 RES1   0.0000
    36 H36      0.4147  -9.8254 -12.9002   H         1 RES1   0.0000
    37 N37     -2.1809 -12.0154 -13.1358   N.4       1 RES1   1.0000
    38 H38     -2.6724 -11.7145 -12.3003   H         1 RES1   0.0000
    39 H39     -2.2352 -13.0258 -13.2148   H         1 RES1   0.0000
    40 N40      0.6498  -3.8488 -14.8362   N.ar      1 RES1   0.0000
    41 C41      0.6755  -3.7756 -17.5391   C.ar      1 RES1   0.0000
    42 H42      0.6871  -3.7557 -18.6239   H         1 RES1   0.0000
    43 N43      1.7873  -1.8578 -14.8554   N.pl3     1 RES1   0.0000
    44 H44      2.2643  -1.1259 -15.3819   H         1 RES1   0.0000
    45 C45      0.0524  -4.8367 -16.9137   C.ar      1 RES1   0.0000
    46 H46     -0.4228  -5.6305 -17.4804   H         1 RES1   0.0000
    47 C47      1.2159  -2.8584 -15.5445   C.ar      1 RES1   0.0000
    48 N48      1.2653  -2.7688 -16.8816   N.ar      1 RES1   0.0000
    49 C49      1.8233  -1.7844 -13.3950   C.3       1 RES1   0.0000
    50 H50      0.9618  -2.3395 -12.9928   H         1 RES1   0.0000
    51 C51      1.7582  -0.3577 -12.8863   C.ar      1 RES1   0.0000
    52 C52      3.1027  -2.4695 -12.9290   C.3       1 RES1   0.0000
    53 H53      3.1655  -2.4726 -11.8428   H         1 RES1   0.0000
    54 H54      3.1374  -3.5010 -13.2732   H         1 RES1   0.0000
    55 H55      3.9782  -1.9533 -13.3172   H         1 RES1   0.0000
    56 C56      1.6465   2.2686 -11.9641   C.ar      1 RES1   0.0000
    57 H57      1.6023   3.2916 -11.6051   H         1 RES1   0.0000
    58 C58      2.3398   0.6741 -13.6090   C.ar      1 RES1   0.0000
    59 H59      2.8444   0.4552 -14.5442   H         1 RES1   0.0000
    60 C60      1.1214  -0.0515 -11.6914   C.ar      1 RES1   0.0000
    61 H61      0.6609  -0.8419 -11.1081   H         1 RES1   0.0000
    62 C62      1.0663   1.2544 -11.2345   C.ar      1 RES1   0.0000
    63 H63      0.5646   1.4789 -10.2991   H         1 RES1   0.0000
    64 C64      2.2831   1.9794 -13.1509   C.ar      1 RES1   0.0000
    65 H65      2.7410   2.7758 -13.7281   H         1 RES1   0.0000
@<TRIPOS>BOND
     1     1     5   ar
     2     1     6   ar
     3     1     2    1
     4     3     8   ar
     5     3     9   ar
     6     3     4    1
     7     5     9   ar
     8     5    11    1
     9     6     8   ar
    10     6     7    1
    11     8    12    1
    12     9    10    1
    13    11    20    2
    14    11    23    1
    15    13    14    1
    16    13    23   am
    17    13    24    1
    18    14    31    1
    19    14    34    1
    20    14    15    1
    21    16    24    1
    22    16    17    1
    23    16    18    1
    24    16    19    1
    25    20    21    1
    26    20    24    1
    27    21    40   ar
    28    21    45   ar
    29    22    23    2
    30    25    34    1
    31    25    37    1
    32    25    26    1
    33    25    27    1
    34    28    31    1
    35    28    37    1
    36    28    29    1
    37    28    30    1
    38    31    32    1
    39    31    33    1
    40    34    35    1
    41    34    36    1
    42    37    38    1
    43    37    39    1
    44    40    47   ar
    45    41    45   ar
    46    41    48   ar
    47    41    42    1
    48    43    47    1
    49    43    49    1
    50    43    44    1
    51    45    46    1
    52    47    48   ar
    53    49    51    1
    54    49    52    1
    55    49    50    1
    56    51    58   ar
    57    51    60   ar
    58    52    53    1
    59    52    54    1
    60    52    55    1
    61    56    62   ar
    62    56    64   ar
    63    56    57    1
    64    58    64   ar
    65    58    59    1
    66    60    62   ar
    67    60    61    1
    68    62    63    1
    69    64    65    1
@<TRIPOS>SUBSTRUCTURE
     1 RES1        1 GROUP             0 ****  ****    0  
@<TRIPOS>MOLECULE
LIGAND_00428
    65    69     1     0     0
SMALL
USER_CHARGES
****
Generated from the CSD

@<TRIPOS>ATOM
     1 C1      -3.0640  -3.8291 -15.3623   C.ar      1 RES1   0.0000
     2 H2      -3.8880  -4.2456 -14.7931   H         1 RES1   0.0000
     3 C3      -0.9723  -2.7271 -16.7912   C.ar      1 RES1   0.0000
     4 H4      -0.1535  -2.2840 -17.3485   H         1 RES1   0.0000
     5 C5      -1.8416  -4.4939 -15.3833   C.ar      1 RES1   0.0000
     6 C6      -3.2499  -2.6423 -16.0490   C.ar      1 RES1   0.0000
     7 H7      -4.2094  -2.1363 -16.0346   H         1 RES1   0.0000
     8 C8      -2.1953  -2.1211 -16.7444   C.ar      1 RES1   0.0000
     9 C9      -0.8037  -3.9196 -16.1118   C.ar      1 RES1   0.0000
    10 H10      0.1596  -4.4150 -16.1547   H         1 RES1   0.0000
    11 C11     -1.6241  -5.7782 -14.6414   C.2       1 RES1   0.0000
    12 F12     -2.3693  -0.9514 -17.4176   F         1 RES1   0.0000
    13 N13     -1.2296  -7.9383 -14.1569   N.am      1 RES1   0.0000
    14 C14     -1.4870  -9.4110 -14.3029   C.3       1 RES1   0.0000
    15 H15     -1.2001  -9.7058 -15.3112   H         1 RES1   0.0000
    16 C16     -0.8689  -7.6867 -11.7805   C.3       1 RES1   0.0000
    17 H17     -1.4390  -8.4068 -11.1972   H         1 RES1   0.0000
    18 H18      0.0772  -8.1479 -12.0564   H         1 RES1   0.0000
    19 H19     -0.6560  -6.8286 -11.1465   H         1 RES1   0.0000
    20 C20     -1.7513  -5.9390 -13.3057   C.2       1 RES1   0.0000
    21 C21     -2.0254  -4.9138 -12.2663   C.ar      1 RES1   0.0000
    22 O22     -1.1901  -7.3970 -16.3897   O.2       1 RES1   0.0000
    23 C23     -1.3091  -7.0550 -15.2205   C.2       1 RES1   0.0000
    24 N24     -1.6144  -7.2774 -12.9712   N.3       1 RES1   0.0000
    25 C25     -0.8630 -11.6999 -13.4673   C.3       1 RES1   0.0000
    26 H26     -0.2764 -12.2347 -12.7218   H         1 RES1   0.0000
    27 H27     -0.5564 -12.0138 -14.4640   H         1 RES1   0.0000
    28 C28     -3.1818 -11.2635 -14.2321   C.3       1 RES1   0.0000
    29 H29     -2.9434 -11.5769 -15.2475   H         1 RES1   0.0000
    30 H30     -4.2254 -11.4891 -14.0182   H         1 RES1   0.0000
    31 C31     -2.9594  -9.7638 -14.1073   C.3       1 RES1   0.0000
    32 H32     -3.5519  -9.2517 -14.8640   H         1 RES1   0.0000
    33 H33     -3.2752  -9.4382 -13.1172   H         1 RES1   0.0000
    34 C34     -0.6329 -10.2064 -13.3149   C.3       1 RES1   0.0000
    35 H35     -0.8934  -9.9087 -12.3003   H         1 RES1   0.0000
    36 H36      0.4182  -9.9886 -13.4986   H         1 RES1   0.0000
    37 N37     -2.3133 -12.0077 -13.2732   N.4       1 RES1   1.0000
    38 H38     -2.5777 -11.7524 -12.3271   H         1 RES1   0.0000
    39 H39     -2.4568 -13.0035 -13.4075   H         1 RES1   0.0000
    40 N40     -1.5622  -3.6765 -12.5033   N.ar      1 RES1   0.0000
    41 C41     -2.8928  -4.1749 -10.2027   C.ar      1 RES1   0.0000
    42 H42     -3.4327  -4.3807  -9.2843   H         1 RES1   0.0000
    43 N43     -1.3003  -1.5147 -11.7849   N.pl3     1 RES1   0.0000
    44 H44     -0.7408  -1.3662 -12.6246   H         1 RES1   0.0000
    45 C45     -2.7132  -5.2096 -11.0985   C.ar      1 RES1   0.0000
    46 H46     -3.0900  -6.2069 -10.8971   H         1 RES1   0.0000
    47 C47     -1.7815  -2.7475 -11.5589   C.ar      1 RES1   0.0000
    48 N48     -2.4367  -2.9317 -10.4034   N.ar      1 RES1   0.0000
    49 C49     -1.4749  -0.3863 -10.8706   C.3       1 RES1   0.0000
    50 H50     -1.5316  -0.7724  -9.8410   H         1 RES1   0.0000
    51 C51     -2.7368   0.4025 -11.1605   C.ar      1 RES1   0.0000
    52 C52     -0.2407   0.5002 -10.9893   C.3       1 RES1   0.0000
    53 H53     -0.3029   1.3426 -10.3036   H         1 RES1   0.0000
    54 H54      0.6626  -0.0598 -10.7569   H         1 RES1   0.0000
    55 H55     -0.1454   0.8927 -11.9996   H         1 RES1   0.0000
    56 C56     -5.0469   1.8644 -11.6959   C.ar      1 RES1   0.0000
    57 H57     -5.9466   2.4335 -11.9051   H         1 RES1   0.0000
    58 C58     -2.6644   1.7462 -11.4983   C.ar      1 RES1   0.0000
    59 H59     -1.6966   2.2334 -11.5540   H         1 RES1   0.0000
    60 C60     -3.9872  -0.1964 -11.0930   C.ar      1 RES1   0.0000
    61 H61     -4.0689  -1.2456 -10.8291   H         1 RES1   0.0000
    62 C62     -5.1346   0.5314 -11.3597   C.ar      1 RES1   0.0000
    63 H63     -6.1052   0.0499 -11.3037   H         1 RES1   0.0000
    64 C64     -3.8127   2.4722 -11.7654   C.ar      1 RES1   0.0000
    65 H65     -3.7399   3.5219 -12.0299   H         1 RES1   0.0000
@<TRIPOS>BOND
     1     1     5   ar
     2     1     6   ar
     3     1     2    1
     4     3     8   ar
     5     3     9   ar
     6     3     4    1
     7     5     9   ar
     8     5    11    1
     9     6     8   ar
    10     6     7    1
    11     8    12    1
    12     9    10    1
    13    11    20    2
    14    11    23    1
    15    13    14    1
    16    13    23   am
    17    13    24    1
    18    14    31    1
    19    14    34    1
    20    14    15    1
    21    16    24    1
    22    16    17    1
    23    16    18    1
    24    16    19    1
    25    20    21    1
    26    20    24    1
    27    21    40   ar
    28    21    45   ar
    29    22    23    2
    30    25    34    1
    31    25    37    1
    32    25    26    1
    33    25    27    1
    34    28    31    1
    35    28    37    1
    36    28    29    1
    37    28    30    1
    38    31    32    1
    39    31    33    1
    40    34    35    1
    41    34    36    1
    42    37    38    1
    43    37    39    1
    44    40    47   ar
    45    41    45   ar
    46    41    48   ar
    47    41    42    1
    48    43    47    1
    49    43    49    1
    50    43    44    1
    51    45    46    1
    52    47    48   ar
    53    49    51    1
    54    49    52    1
    55    49    50    1
    56    51    58   ar
    57    51    60   ar
    58    52    53    1
    59    52    54    1
    60    52    55    1
    61    56    62   ar
    62    56    64   ar
    63    56    57    1
    64    58    64   ar
    65    58    59    1
    66    60    62   ar
    67    60    61    1
    68    62    63    1
    69    64    65    1
@<TRIPOS>SUBSTRUCTURE
     1 RES1        1 GROUP             0 ****  ****    0  
@<TRIPOS>MOLECULE
LIGAND_00429
    65    69     1     0     0
SMALL
USER_CHARGES
****
Generated from the CSD

@<TRIPOS>ATOM
     1 C1      -3.0633  -3.8287 -15.3624   C.ar      1 RES1   0.0000
     2 H2      -3.8874  -4.2452 -14.7934   H         1 RES1   0.0000
     3 C3      -0.9711  -2.7270 -16.7909   C.ar      1 RES1   0.0000
     4 H4      -0.1521  -2.2841 -17.3480   H         1 RES1   0.0000
     5 C5      -1.8410  -4.4938 -15.3832   C.ar      1 RES1   0.0000
     6 C6      -3.2488  -2.6419 -16.0491   C.ar      1 RES1   0.0000
     7 H7      -4.2083  -2.1357 -16.0348   H         1 RES1   0.0000
     8 C8      -2.1940  -2.1209 -16.7443   C.ar      1 RES1   0.0000
     9 C9      -0.8028  -3.9197 -16.1115   C.ar      1 RES1   0.0000
    10 H10      0.1604  -4.4152 -16.1543   H         1 RES1   0.0000
    11 C11     -1.6239  -5.7781 -14.6413   C.2       1 RES1   0.0000
    12 F12     -2.3677  -0.9510 -17.4175   F         1 RES1   0.0000
    13 N13     -1.2298  -7.9383 -14.1569   N.am      1 RES1   0.0000
    14 C14     -1.4875  -9.4110 -14.3030   C.3       1 RES1   0.0000
    15 H15     -1.2004  -9.7058 -15.3113   H         1 RES1   0.0000
    16 C16     -0.8694  -7.6870 -11.7804   C.3       1 RES1   0.0000
    17 H17     -1.4399  -8.4069 -11.1972   H         1 RES1   0.0000
    18 H18      0.0766  -8.1484 -12.0562   H         1 RES1   0.0000
    19 H19     -0.6564  -6.8289 -11.1464   H         1 RES1   0.0000
    20 C20     -1.7513  -5.9390 -13.3057   C.2       1 RES1   0.0000
    21 C21     -2.0254  -4.9138 -12.2663   C.ar      1 RES1   0.0000
    22 O22     -1.1899  -7.3970 -16.3897   O.2       1 RES1   0.0000
    23 C23     -1.3090  -7.0549 -15.2204   C.2       1 RES1   0.0000
    24 N24     -1.6147  -7.2774 -12.9713   N.3       1 RES1   0.0000
    25 C25     -0.8640 -11.7001 -13.4674   C.3       1 RES1   0.0000
    26 H26     -0.2776 -12.2350 -12.7218   H         1 RES1   0.0000
    27 H27     -0.5573 -12.0140 -14.4641   H         1 RES1   0.0000
    28 C28     -3.1826 -11.2632 -14.2326   C.3       1 RES1   0.0000
    29 H29     -2.9440 -11.5765 -15.2479   H         1 RES1   0.0000
    30 H30     -4.2263 -11.4886 -14.0189   H         1 RES1   0.0000
    31 C31     -2.9600  -9.7636 -14.1076   C.3       1 RES1   0.0000
    32 H32     -3.5523  -9.2513 -14.8644   H         1 RES1   0.0000
    33 H33     -3.2758  -9.4379 -13.1176   H         1 RES1   0.0000
    34 C34     -0.6336 -10.2066 -13.3149   C.3       1 RES1   0.0000
    35 H35     -0.8943  -9.9089 -12.3004   H         1 RES1   0.0000
    36 H36      0.4175  -9.9889 -13.4984   H         1 RES1   0.0000
    37 N37     -2.3144 -12.0076 -13.2736   N.4       1 RES1   1.0000
    38 H38     -2.5789 -11.7523 -12.3275   H         1 RES1   0.0000
    39 H39     -2.4580 -13.0034 -13.4080   H         1 RES1   0.0000
    40 N40     -1.5622  -3.6765 -12.5033   N.ar      1 RES1   0.0000
    41 C41     -2.8928  -4.1749 -10.2027   C.ar      1 RES1   0.0000
    42 H42     -3.4327  -4.3807  -9.2843   H         1 RES1   0.0000
    43 N43     -1.3003  -1.5147 -11.7849   N.pl3     1 RES1   0.0000
    44 H44     -1.5164  -0.7850 -11.1057   H         1 RES1   0.0000
    45 C45     -2.7132  -5.2096 -11.0985   C.ar      1 RES1   0.0000
    46 H46     -3.0900  -6.2069 -10.8971   H         1 RES1   0.0000
    47 C47     -1.7815  -2.7475 -11.5589   C.ar      1 RES1   0.0000
    48 N48     -2.4367  -2.9317 -10.4034   N.ar      1 RES1   0.0000
    49 C49     -0.5388  -1.1375 -12.9755   C.3       1 RES1   0.0000
    50 H50     -0.8763  -1.7573 -13.8206   H         1 RES1   0.0000
    51 C51      0.9530  -1.3384 -12.7950   C.ar      1 RES1   0.0000
    52 C52     -0.8571   0.3205 -13.2852   C.3       1 RES1   0.0000
    53 H53     -0.3397   0.6460 -14.1852   H         1 RES1   0.0000
    54 H54     -1.9251   0.4598 -13.4393   H         1 RES1   0.0000
    55 H55     -0.5466   0.9642 -12.4648   H         1 RES1   0.0000
    56 C56      3.6965  -1.6924 -12.4658   C.ar      1 RES1   0.0000
    57 H57      4.7649  -1.8303 -12.3369   H         1 RES1   0.0000
    58 C58      1.8253  -0.2647 -12.9008   C.ar      1 RES1   0.0000
    59 H59      1.4341   0.7245 -13.1147   H         1 RES1   0.0000
    60 C60      1.4791  -2.5940 -12.5238   C.ar      1 RES1   0.0000
    61 H61      0.8167  -3.4491 -12.4383   H         1 RES1   0.0000
    62 C62      2.8429  -2.7684 -12.3600   C.ar      1 RES1   0.0000
    63 H63      3.2399  -3.7555 -12.1477   H         1 RES1   0.0000
    64 C64      3.1887  -0.4407 -12.7360   C.ar      1 RES1   0.0000
    65 H65      3.8580   0.4089 -12.8199   H         1 RES1   0.0000
@<TRIPOS>BOND
     1     1     5   ar
     2     1     6   ar
     3     1     2    1
     4     3     8   ar
     5     3     9   ar
     6     3     4    1
     7     5     9   ar
     8     5    11    1
     9     6     8   ar
    10     6     7    1
    11     8    12    1
    12     9    10    1
    13    11    20    2
    14    11    23    1
    15    13    14    1
    16    13    23   am
    17    13    24    1
    18    14    31    1
    19    14    34    1
    20    14    15    1
    21    16    24    1
    22    16    17    1
    23    16    18    1
    24    16    19    1
    25    20    21    1
    26    20    24    1
    27    21    40   ar
    28    21    45   ar
    29    22    23    2
    30    25    34    1
    31    25    37    1
    32    25    26    1
    33    25    27    1
    34    28    31    1
    35    28    37    1
    36    28    29    1
    37    28    30    1
    38    31    32    1
    39    31    33    1
    40    34    35    1
    41    34    36    1
    42    37    38    1
    43    37    39    1
    44    40    47   ar
    45    41    45   ar
    46    41    48   ar
    47    41    42    1
    48    43    47    1
    49    43    49    1
    50    43    44    1
    51    45    46    1
    52    47    48   ar
    53    49    51    1
    54    49    52    1
    55    49    50    1
    56    51    58   ar
    57    51    60   ar
    58    52    53    1
    59    52    54    1
    60    52    55    1
    61    56    62   ar
    62    56    64   ar
    63    56    57    1
    64    58    64   ar
    65    58    59    1
    66    60    62   ar
    67    60    61    1
    68    62    63    1
    69    64    65    1
@<TRIPOS>SUBSTRUCTURE
     1 RES1        1 GROUP             0 ****  ****    0  
@<TRIPOS>MOLECULE
LIGAND_00430
    65    69     1     0     0
SMALL
USER_CHARGES
****
Generated from the CSD

@<TRIPOS>ATOM
     1 C1       0.2573  -3.9668 -12.3518   C.ar      1 RES1   0.0000
     2 H2       1.1798  -4.3862 -12.7387   H         1 RES1   0.0000
     3 C3      -2.0802  -2.8573 -11.3840   C.ar      1 RES1   0.0000
     4 H4      -2.9946  -2.4113 -11.0069   H         1 RES1   0.0000
     5 C5      -0.9499  -4.6055 -12.6192   C.ar      1 RES1   0.0000
     6 C6       0.3059  -2.8024 -11.6060   C.ar      1 RES1   0.0000
     7 H7       1.2528  -2.3169 -11.3946   H         1 RES1   0.0000
     8 C8      -0.8676  -2.2768 -11.1435   C.ar      1 RES1   0.0000
     9 C9      -2.1136  -4.0281 -12.1191   C.ar      1 RES1   0.0000
    10 H10     -3.0702  -4.5036 -12.3032   H         1 RES1   0.0000
    11 C11     -1.0186  -5.8654 -13.4287   C.2       1 RES1   0.0000
    12 F12     -0.8280  -1.1287 -10.4139   F         1 RES1   0.0000
    13 N13     -1.3462  -7.9194 -14.2137   N.am      1 RES1   0.0000
    14 C14     -1.7558  -9.3491 -14.4253   C.3       1 RES1   0.0000
    15 H15     -1.4862  -9.6309 -15.4421   H         1 RES1   0.0000
    16 C16     -0.6690  -7.5592 -16.6198   C.3       1 RES1   0.0000
    17 H17      0.0864  -6.9792 -17.1460   H         1 RES1   0.0000
    18 H18     -0.3987  -8.6107 -16.6909   H         1 RES1   0.0000
    19 H19     -1.6205  -7.4182 -17.1283   H         1 RES1   0.0000
    20 C20     -0.5870  -5.9122 -14.7311   C.2       1 RES1   0.0000
    21 C21      0.0604  -4.8376 -15.5265   C.ar      1 RES1   0.0000
    22 O22     -1.9962  -7.6129 -12.0746   O.2       1 RES1   0.0000
    23 C23     -1.5042  -7.1661 -13.1026   C.2       1 RES1   0.0000
    24 N24     -0.7634  -7.1401 -15.2210   N.pl3     1 RES1   0.0000
    25 C25     -1.3906 -11.7240 -13.6814   C.3       1 RES1   0.0000
    26 H26     -0.8755 -12.3485 -12.9530   H         1 RES1   0.0000
    27 H27     -1.1036 -12.0273 -14.6871   H         1 RES1   0.0000
    28 C28     -3.6381 -11.0120 -14.4522   C.3       1 RES1   0.0000
    29 H29     -3.4186 -11.3068 -15.4773   H         1 RES1   0.0000
    30 H30     -4.7029 -11.1339 -14.2596   H         1 RES1   0.0000
    31 C31     -3.2601  -9.5509 -14.2610   C.3       1 RES1   0.0000
    32 H32     -3.7833  -8.9479 -15.0016   H         1 RES1   0.0000
    33 H33     -3.5548  -9.2347 -13.2615   H         1 RES1   0.0000
    34 C34     -1.0060 -10.2710 -13.4629   C.3       1 RES1   0.0000
    35 H35     -1.2491  -9.9894 -12.4394   H         1 RES1   0.0000
    36 H36      0.0649 -10.1589 -13.6256   H         1 RES1   0.0000
    37 N37     -2.8682 -11.8834 -13.5165   N.4       1 RES1   1.0000
    38 H38     -3.1186 -11.6406 -12.5633   H         1 RES1   0.0000
    39 H39     -3.1142 -12.8518 -13.6947   H         1 RES1   0.0000
    40 N40      1.0505  -5.2120 -16.3517   N.ar      1 RES1   0.0000
    41 C41      0.3664  -2.6002 -16.2028   C.ar      1 RES1   0.0000
    42 H42      0.0825  -1.5547 -16.1423   H         1 RES1   0.0000
    43 N43      2.6654  -4.6157 -17.8667   N.pl3     1 RES1   0.0000
    44 H44      2.9540  -5.5939 -17.8544   H         1 RES1   0.0000
    45 C45     -0.3206  -3.5078 -15.4220   C.ar      1 RES1   0.0000
    46 H46     -1.1186  -3.1952 -14.7566   H         1 RES1   0.0000
    47 C47      1.6606  -4.2456 -17.0567   C.ar      1 RES1   0.0000
    48 N48      1.3642  -2.9380 -17.0297   N.ar      1 RES1   0.0000
    49 C49      3.4138  -3.6920 -18.7189   C.3       1 RES1   0.0000
    50 H50      3.4369  -2.7043 -18.2330   H         1 RES1   0.0000
    51 C51      2.7909  -3.5397 -20.0927   C.ar      1 RES1   0.0000
    52 C52      4.8418  -4.2145 -18.8246   C.3       1 RES1   0.0000
    53 H53      5.4546  -3.5448 -19.4243   H         1 RES1   0.0000
    54 H54      5.2971  -4.3000 -17.8402   H         1 RES1   0.0000
    55 H55      4.8578  -5.1970 -19.2917   H         1 RES1   0.0000
    56 C56      1.6595  -3.2653 -22.6235   C.ar      1 RES1   0.0000
    57 H57      1.2185  -3.1590 -23.6091   H         1 RES1   0.0000
    58 C58      3.5079  -3.8775 -21.2315   C.ar      1 RES1   0.0000
    59 H59      4.5214  -4.2525 -21.1350   H         1 RES1   0.0000
    60 C60      1.4973  -3.0594 -20.2435   C.ar      1 RES1   0.0000
    61 H61      0.9179  -2.7871 -19.3676   H         1 RES1   0.0000
    62 C62      0.9361  -2.9238 -21.5020   C.ar      1 RES1   0.0000
    63 H63     -0.0763  -2.5477 -21.6046   H         1 RES1   0.0000
    64 C64      2.9449  -3.7420 -22.4891   C.ar      1 RES1   0.0000
    65 H65      3.5174  -4.0120 -23.3702   H         1 RES1   0.0000
@<TRIPOS>BOND
     1     1     5   ar
     2     1     6   ar
     3     1     2    1
     4     3     8   ar
     5     3     9   ar
     6     3     4    1
     7     5     9   ar
     8     5    11    1
     9     6     8   ar
    10     6     7    1
    11     8    12    1
    12     9    10    1
    13    11    20    2
    14    11    23    1
    15    13    14    1
    16    13    23   am
    17    13    24    1
    18    14    31    1
    19    14    34    1
    20    14    15    1
    21    16    24    1
    22    16    17    1
    23    16    18    1
    24    16    19    1
    25    20    21    1
    26    20    24    1
    27    21    40   ar
    28    21    45   ar
    29    22    23    2
    30    25    34    1
    31    25    37    1
    32    25    26    1
    33    25    27    1
    34    28    31    1
    35    28    37    1
    36    28    29    1
    37    28    30    1
    38    31    32    1
    39    31    33    1
    40    34    35    1
    41    34    36    1
    42    37    38    1
    43    37    39    1
    44    40    47   ar
    45    41    45   ar
    46    41    48   ar
    47    41    42    1
    48    43    47    1
    49    43    49    1
    50    43    44    1
    51    45    46    1
    52    47    48   ar
    53    49    51    1
    54    49    52    1
    55    49    50    1
    56    51    58   ar
    57    51    60   ar
    58    52    53    1
    59    52    54    1
    60    52    55    1
    61    56    62   ar
    62    56    64   ar
    63    56    57    1
    64    58    64   ar
    65    58    59    1
    66    60    62   ar
    67    60    61    1
    68    62    63    1
    69    64    65    1
@<TRIPOS>SUBSTRUCTURE
     1 RES1        1 GROUP             0 ****  ****    0  
@<TRIPOS>MOLECULE
LIGAND_00431
    65    69     1     0     0
SMALL
USER_CHARGES
****
Generated from the CSD

@<TRIPOS>ATOM
     1 C1       0.2576  -3.9670 -12.3517   C.ar      1 RES1   0.0000
     2 H2       1.1800  -4.3865 -12.7386   H         1 RES1   0.0000
     3 C3      -2.0798  -2.8573 -11.3838   C.ar      1 RES1   0.0000
     4 H4      -2.9941  -2.4112 -11.0066   H         1 RES1   0.0000
     5 C5      -0.9496  -4.6056 -12.6191   C.ar      1 RES1   0.0000
     6 C6       0.3063  -2.8026 -11.6058   C.ar      1 RES1   0.0000
     7 H7       1.2532  -2.3172 -11.3944   H         1 RES1   0.0000
     8 C8      -0.8671  -2.2769 -11.1433   C.ar      1 RES1   0.0000
     9 C9      -2.1133  -4.0281 -12.1190   C.ar      1 RES1   0.0000
    10 H10     -3.0700  -4.5035 -12.3030   H         1 RES1   0.0000
    11 C11     -1.0185  -5.8654 -13.4286   C.2       1 RES1   0.0000
    12 F12     -0.8274  -1.1289 -10.4137   F         1 RES1   0.0000
    13 N13     -1.3462  -7.9194 -14.2138   N.am      1 RES1   0.0000
    14 C14     -1.7560  -9.3491 -14.4254   C.3       1 RES1   0.0000
    15 H15     -1.4869  -9.6306 -15.4424   H         1 RES1   0.0000
    16 C16     -0.6692  -7.5591 -16.6199   C.3       1 RES1   0.0000
    17 H17      0.0861  -6.9791 -17.1461   H         1 RES1   0.0000
    18 H18     -0.3989  -8.6106 -16.6910   H         1 RES1   0.0000
    19 H19     -1.6208  -7.4182 -17.1283   H         1 RES1   0.0000
    20 C20     -0.5870  -5.9122 -14.7311   C.2       1 RES1   0.0000
    21 C21      0.0604  -4.8376 -15.5265   C.ar      1 RES1   0.0000
    22 O22     -1.9961  -7.6129 -12.0745   O.2       1 RES1   0.0000
    23 C23     -1.5042  -7.1661 -13.1026   C.2       1 RES1   0.0000
    24 N24     -0.7635  -7.1401 -15.2210   N.pl3     1 RES1   0.0000
    25 C25     -1.3903 -11.7241 -13.6821   C.3       1 RES1   0.0000
    26 H26     -0.8747 -12.3487 -12.9542   H         1 RES1   0.0000
    27 H27     -1.1039 -12.0272 -14.6881   H         1 RES1   0.0000
    28 C28     -3.6382 -11.0120 -14.4515   C.3       1 RES1   0.0000
    29 H29     -3.4193 -11.3065 -15.4768   H         1 RES1   0.0000
    30 H30     -4.7030 -11.1339 -14.2582   H         1 RES1   0.0000
    31 C31     -3.2602  -9.5509 -14.2602   C.3       1 RES1   0.0000
    32 H32     -3.7838  -8.9477 -15.0004   H         1 RES1   0.0000
    33 H33     -3.5543  -9.2349 -13.2605   H         1 RES1   0.0000
    34 C34     -1.0056 -10.2712 -13.4636   C.3       1 RES1   0.0000
    35 H35     -1.2481  -9.9897 -12.4399   H         1 RES1   0.0000
    36 H36      0.0652 -10.1590 -13.6269   H         1 RES1   0.0000
    37 N37     -2.8677 -11.8835 -13.5164   N.4       1 RES1   1.0000
    38 H38     -3.1176 -11.6409 -12.5630   H         1 RES1   0.0000
    39 H39     -3.1139 -12.8519 -13.6947   H         1 RES1   0.0000
    40 N40      1.0505  -5.2120 -16.3517   N.ar      1 RES1   0.0000
    41 C41      0.3664  -2.6002 -16.2028   C.ar      1 RES1   0.0000
    42 H42      0.0825  -1.5547 -16.1423   H         1 RES1   0.0000
    43 N43      2.6654  -4.6157 -17.8667   N.pl3     1 RES1   0.0000
    44 H44      3.0931  -3.9010 -18.4553   H         1 RES1   0.0000
    45 C45     -0.3206  -3.5078 -15.4220   C.ar      1 RES1   0.0000
    46 H46     -1.1186  -3.1952 -14.7566   H         1 RES1   0.0000
    47 C47      1.6606  -4.2456 -17.0567   C.ar      1 RES1   0.0000
    48 N48      1.3642  -2.9380 -17.0297   N.ar      1 RES1   0.0000
    49 C49      3.1431  -5.9914 -18.0042   C.3       1 RES1   0.0000
    50 H50      2.2990  -6.6766 -17.8304   H         1 RES1   0.0000
    51 C51      4.2446  -6.3221 -17.0164   C.ar      1 RES1   0.0000
    52 C52      3.6272  -6.1715 -19.4382   C.3       1 RES1   0.0000
    53 H53      3.9655  -7.1918 -19.6063   H         1 RES1   0.0000
    54 H54      2.8292  -5.9582 -20.1463   H         1 RES1   0.0000
    55 H55      4.4568  -5.5005 -19.6507   H         1 RES1   0.0000
    56 C56      6.2782  -6.9329 -15.2131   C.ar      1 RES1   0.0000
    57 H57      7.0703  -7.1700 -14.5107   H         1 RES1   0.0000
    58 C58      5.4986  -6.7107 -17.4652   C.ar      1 RES1   0.0000
    59 H59      5.6891  -6.7779 -18.5312   H         1 RES1   0.0000
    60 C60      4.0256  -6.2470 -15.6477   C.ar      1 RES1   0.0000
    61 H61      3.0525  -5.9472 -15.2730   H         1 RES1   0.0000
    62 C62      5.0375  -6.5505 -14.7525   C.ar      1 RES1   0.0000
    63 H63      4.8521  -6.4867 -13.6855   H         1 RES1   0.0000
    64 C64      6.5094  -7.0131 -16.5687   C.ar      1 RES1   0.0000
    65 H65      7.4854  -7.3138 -16.9349   H         1 RES1   0.0000
@<TRIPOS>BOND
     1     1     5   ar
     2     1     6   ar
     3     1     2    1
     4     3     8   ar
     5     3     9   ar
     6     3     4    1
     7     5     9   ar
     8     5    11    1
     9     6     8   ar
    10     6     7    1
    11     8    12    1
    12     9    10    1
    13    11    20    2
    14    11    23    1
    15    13    14    1
    16    13    23   am
    17    13    24    1
    18    14    31    1
    19    14    34    1
    20    14    15    1
    21    16    24    1
    22    16    17    1
    23    16    18    1
    24    16    19    1
    25    20    21    1
    26    20    24    1
    27    21    40   ar
    28    21    45   ar
    29    22    23    2
    30    25    34    1
    31    25    37    1
    32    25    26    1
    33    25    27    1
    34    28    31    1
    35    28    37    1
    36    28    29    1
    37    28    30    1
    38    31    32    1
    39    31    33    1
    40    34    35    1
    41    34    36    1
    42    37    38    1
    43    37    39    1
    44    40    47   ar
    45    41    45   ar
    46    41    48   ar
    47    41    42    1
    48    43    47    1
    49    43    49    1
    50    43    44    1
    51    45    46    1
    52    47    48   ar
    53    49    51    1
    54    49    52    1
    55    49    50    1
    56    51    58   ar
    57    51    60   ar
    58    52    53    1
    59    52    54    1
    60    52    55    1
    61    56    62   ar
    62    56    64   ar
    63    56    57    1
    64    58    64   ar
    65    58    59    1
    66    60    62   ar
    67    60    61    1
    68    62    63    1
    69    64    65    1
@<TRIPOS>SUBSTRUCTURE
     1 RES1        1 GROUP             0 ****  ****    0  
@<TRIPOS>MOLECULE
LIGAND_00432
    65    69     1     0     0
SMALL
USER_CHARGES
****
Generated from the CSD

@<TRIPOS>ATOM
     1 C1      -1.1704  -3.4199 -15.0830   C.ar      1 RES1   0.0000
     2 H2      -2.1961  -3.5545 -14.7567   H         1 RES1   0.0000
     3 C3       1.4445  -3.0386 -15.8882   C.ar      1 RES1   0.0000
     4 H4       2.4716  -2.8787 -16.1994   H         1 RES1   0.0000
     5 C5      -0.2774  -4.4831 -14.9891   C.ar      1 RES1   0.0000
     6 C6      -0.7759  -2.1901 -15.5795   C.ar      1 RES1   0.0000
     7 H7      -1.4819  -1.3700 -15.6579   H         1 RES1   0.0000
     8 C8       0.5248  -2.0320 -15.9671   C.ar      1 RES1   0.0000
     9 C9       1.0341  -4.2667 -15.4029   C.ar      1 RES1   0.0000
    10 H10      1.7537  -5.0757 -15.3496   H         1 RES1   0.0000
    11 C11     -0.6891  -5.8198 -14.4499   C.2       1 RES1   0.0000
    12 F12      0.9212  -0.8236 -16.4513   F         1 RES1   0.0000
    13 N13     -1.1383  -7.9692 -14.1020   N.am      1 RES1   0.0000
    14 C14     -1.2682  -9.4629 -14.1940   C.3       1 RES1   0.0000
    15 H15     -0.9097  -9.7735 -15.1743   H         1 RES1   0.0000
    16 C16     -1.7372  -7.8785 -11.6503   C.3       1 RES1   0.0000
    17 H17     -2.3109  -7.2068 -11.0150   H         1 RES1   0.0000
    18 H18     -2.3138  -8.7913 -11.7856   H         1 RES1   0.0000
    19 H19     -0.8158  -8.1331 -11.1307   H         1 RES1   0.0000
    20 C20     -1.1594  -5.9688 -13.1688   C.2       1 RES1   0.0000
    21 C21     -1.4160  -4.9157 -12.1531   C.ar      1 RES1   0.0000
    22 O22     -0.3397  -7.4938 -16.1583   O.2       1 RES1   0.0000
    23 C23     -0.6816  -7.1157 -15.0455   C.2       1 RES1   0.0000
    24 N24     -1.4470  -7.2509 -12.9399   N.pl3     1 RES1   0.0000
    25 C25     -0.5022 -11.6565 -13.2305   C.3       1 RES1   0.0000
    26 H26      0.0890 -12.1101 -12.4363   H         1 RES1   0.0000
    27 H27     -0.1231 -11.9840 -14.1974   H         1 RES1   0.0000
    28 C28     -2.8088 -11.4453 -14.1177   C.3       1 RES1   0.0000
    29 H29     -2.4967 -11.7786 -15.1063   H         1 RES1   0.0000
    30 H30     -3.8399 -11.7479 -13.9412   H         1 RES1   0.0000
    31 C31     -2.7149  -9.9285 -14.0495   C.3       1 RES1   0.0000
    32 H32     -3.3095  -9.4983 -14.8541   H         1 RES1   0.0000
    33 H33     -3.1037  -9.5903 -13.0901   H         1 RES1   0.0000
    34 C34     -0.4014 -10.1441 -13.1343   C.3       1 RES1   0.0000
    35 H35     -0.7341  -9.8282 -12.1467   H         1 RES1   0.0000
    36 H36      0.6362  -9.8474 -13.2799   H         1 RES1   0.0000
    37 N37     -1.9305 -12.0754 -13.0885   N.4       1 RES1   1.0000
    38 H38     -2.2603 -11.8048 -12.1675   H         1 RES1   0.0000
    39 H39     -1.9862 -13.0843 -13.1849   H         1 RES1   0.0000
    40 N40     -2.5040  -5.0736 -11.3829   N.ar      1 RES1   0.0000
    41 C41     -0.9401  -2.8952 -11.0360   C.ar      1 RES1   0.0000
    42 H42     -0.3048  -2.0264 -10.8983   H         1 RES1   0.0000
    43 N43     -3.8600  -4.2605  -9.7221   N.pl3     1 RES1   0.0000
    44 H44     -4.4627  -5.0630  -9.9040   H         1 RES1   0.0000
    45 C45     -0.5883  -3.8123 -12.0057   C.ar      1 RES1   0.0000
    46 H46      0.2923  -3.6750 -12.6245   H         1 RES1   0.0000
    47 C47     -2.7605  -4.1147 -10.4787   C.ar      1 RES1   0.0000
    48 N48     -2.0225  -3.0172 -10.2566   N.ar      1 RES1   0.0000
    49 C49     -4.2812  -3.3070  -8.6959   C.3       1 RES1   0.0000
    50 H50     -3.9691  -2.2970  -9.0038   H         1 RES1   0.0000
    51 C51     -3.6710  -3.6088  -7.3413   C.ar      1 RES1   0.0000
    52 C52     -5.8034  -3.3446  -8.6268   C.3       1 RES1   0.0000
    53 H53     -6.1867  -2.4831  -8.0841   H         1 RES1   0.0000
    54 H54     -6.2370  -3.3368  -9.6246   H         1 RES1   0.0000
    55 H55     -6.1427  -4.2440  -8.1171   H         1 RES1   0.0000
    56 C56     -2.5623  -4.1571  -4.8452   C.ar      1 RES1   0.0000
    57 H57     -2.1307  -4.3714  -3.8731   H         1 RES1   0.0000
    58 C58     -4.3392  -3.2621  -6.1758   C.ar      1 RES1   0.0000
    59 H59     -5.3048  -2.7712  -6.2375   H         1 RES1   0.0000
    60 C60     -2.4358  -4.2332  -7.2351   C.ar      1 RES1   0.0000
    61 H61     -1.8938  -4.5120  -8.1326   H         1 RES1   0.0000
    62 C62     -1.8861  -4.5054  -5.9937   C.ar      1 RES1   0.0000
    63 H63     -0.9201  -4.9945  -5.9260   H         1 RES1   0.0000
    64 C64     -3.7884  -3.5358  -4.9354   C.ar      1 RES1   0.0000
    65 H65     -4.3238  -3.2602  -4.0329   H         1 RES1   0.0000
@<TRIPOS>BOND
     1     1     5   ar
     2     1     6   ar
     3     1     2    1
     4     3     8   ar
     5     3     9   ar
     6     3     4    1
     7     5     9   ar
     8     5    11    1
     9     6     8   ar
    10     6     7    1
    11     8    12    1
    12     9    10    1
    13    11    20    2
    14    11    23    1
    15    13    14    1
    16    13    23   am
    17    13    24    1
    18    14    31    1
    19    14    34    1
    20    14    15    1
    21    16    24    1
    22    16    17    1
    23    16    18    1
    24    16    19    1
    25    20    21    1
    26    20    24    1
    27    21    40   ar
    28    21    45   ar
    29    22    23    2
    30    25    34    1
    31    25    37    1
    32    25    26    1
    33    25    27    1
    34    28    31    1
    35    28    37    1
    36    28    29    1
    37    28    30    1
    38    31    32    1
    39    31    33    1
    40    34    35    1
    41    34    36    1
    42    37    38    1
    43    37    39    1
    44    40    47   ar
    45    41    45   ar
    46    41    48   ar
    47    41    42    1
    48    43    47    1
    49    43    49    1
    50    43    44    1
    51    45    46    1
    52    47    48   ar
    53    49    51    1
    54    49    52    1
    55    49    50    1
    56    51    58   ar
    57    51    60   ar
    58    52    53    1
    59    52    54    1
    60    52    55    1
    61    56    62   ar
    62    56    64   ar
    63    56    57    1
    64    58    64   ar
    65    58    59    1
    66    60    62   ar
    67    60    61    1
    68    62    63    1
    69    64    65    1
@<TRIPOS>SUBSTRUCTURE
     1 RES1        1 GROUP             0 ****  ****    0  
@<TRIPOS>MOLECULE
LIGAND_00433
    65    69     1     0     0
SMALL
USER_CHARGES
****
Generated from the CSD

@<TRIPOS>ATOM
     1 C1      -0.0619  -3.9115 -15.8982   C.ar      1 RES1   0.0000
     2 H2      -0.8413  -4.2911 -16.5501   H         1 RES1   0.0000
     3 C3       1.9028  -2.9028 -14.2386   C.ar      1 RES1   0.0000
     4 H4       2.6703  -2.4963 -13.5883   H         1 RES1   0.0000
     5 C5       0.2513  -4.6026 -14.7316   C.ar      1 RES1   0.0000
     6 C6       0.5971  -2.7446 -16.2426   C.ar      1 RES1   0.0000
     7 H7       0.3526  -2.2180 -17.1590   H         1 RES1   0.0000
     8 C8       1.5622  -2.2697 -15.3998   C.ar      1 RES1   0.0000
     9 C9       1.2460  -4.0754 -13.9129   C.ar      1 RES1   0.0000
    10 H10      1.5194  -4.5924 -13.0002   H         1 RES1   0.0000
    11 C11     -0.4565  -5.8658 -14.3435   C.2       1 RES1   0.0000
    12 F12      2.2107  -1.1196 -15.7293   F         1 RES1   0.0000
    13 N13     -1.2978  -7.9183 -14.1950   N.am      1 RES1   0.0000
    14 C14     -1.6474  -9.3662 -14.3902   C.3       1 RES1   0.0000
    15 H15     -1.1923  -9.7011 -15.3211   H         1 RES1   0.0000
    16 C16     -2.2901  -7.7956 -11.8760   C.3       1 RES1   0.0000
    17 H17     -2.9108  -7.0736 -11.3494   H         1 RES1   0.0000
    18 H18     -2.9152  -8.6427 -12.1507   H         1 RES1   0.0000
    19 H19     -1.5229  -8.1482 -11.1899   H         1 RES1   0.0000
    20 C20     -1.1594  -5.9688 -13.1688   C.2       1 RES1   0.0000
    21 C21     -1.4160  -4.9157 -12.1531   C.ar      1 RES1   0.0000
    22 O22     -0.0892  -7.5274 -16.0602   O.2       1 RES1   0.0000
    23 C23     -0.5537  -7.1279 -15.0005   C.2       1 RES1   0.0000
    24 N24     -1.6840  -7.1905 -13.0625   N.pl3     1 RES1   0.0000
    25 C25     -1.4025 -11.6854 -13.4480   C.3       1 RES1   0.0000
    26 H26     -1.0243 -12.2554 -12.6006   H         1 RES1   0.0000
    27 H27     -0.9321 -12.0409 -14.3635   H         1 RES1   0.0000
    28 C28     -3.4762 -11.0667 -14.6600   C.3       1 RES1   0.0000
    29 H29     -3.0686 -11.4161 -15.6075   H         1 RES1   0.0000
    30 H30     -4.5571 -11.1992 -14.6588   H         1 RES1   0.0000
    31 C31     -3.1542  -9.5894 -14.4925   C.3       1 RES1   0.0000
    32 H32     -3.5378  -9.0416 -15.3520   H         1 RES1   0.0000
    33 H33     -3.6311  -9.2215 -13.5853   H         1 RES1   0.0000
    34 C34     -1.0789 -10.2145 -13.2520   C.3       1 RES1   0.0000
    35 H35     -1.5092  -9.8787 -12.3097   H         1 RES1   0.0000
    36 H36      0.0025 -10.0897 -13.2221   H         1 RES1   0.0000
    37 N37     -2.8835 -11.8657 -13.5474   N.4       1 RES1   1.0000
    38 H38     -3.3076 -11.5730 -12.6729   H         1 RES1   0.0000
    39 H39     -3.0830 -12.8478 -13.7081   H         1 RES1   0.0000
    40 N40     -1.4457  -5.3100 -10.8704   N.ar      1 RES1   0.0000
    41 C41     -1.8713  -2.7071 -11.4663   C.ar      1 RES1   0.0000
    42 H42     -2.0353  -1.6631 -11.7123   H         1 RES1   0.0000
    43 N43     -1.7536  -4.7680  -8.6637   N.pl3     1 RES1   0.0000
    44 H44     -1.6406  -5.7622  -8.4659   H         1 RES1   0.0000
    45 C45     -1.6289  -3.5895 -12.4997   C.ar      1 RES1   0.0000
    46 H46     -1.6086  -3.2613 -13.5337   H         1 RES1   0.0000
    47 C47     -1.7025  -4.3713  -9.9453   C.ar      1 RES1   0.0000
    48 N48     -1.9163  -3.0679 -10.1773   N.ar      1 RES1   0.0000
    49 C49     -2.0240  -3.8730  -7.5388   C.3       1 RES1   0.0000
    50 H50     -2.6936  -3.0689  -7.8812   H         1 RES1   0.0000
    51 C51     -0.7607  -3.2454  -6.9830   C.ar      1 RES1   0.0000
    52 C52     -2.7455  -4.6821  -6.4673   C.3       1 RES1   0.0000
    53 H53     -3.1240  -4.0316  -5.6816   H         1 RES1   0.0000
    54 H54     -3.5871  -5.2249  -6.8925   H         1 RES1   0.0000
    55 H55     -2.0712  -5.4049  -6.0126   H         1 RES1   0.0000
    56 C56      1.5538  -2.0914  -5.9478   C.ar      1 RES1   0.0000
    57 H57      2.4555  -1.6426  -5.5446   H         1 RES1   0.0000
    58 C58     -0.6846  -2.8835  -5.6458   C.ar      1 RES1   0.0000
    59 H59     -1.5369  -3.0516  -4.9958   H         1 RES1   0.0000
    60 C60      0.3423  -3.0169  -7.7942   C.ar      1 RES1   0.0000
    61 H61      0.3056  -3.2900  -8.8436   H         1 RES1   0.0000
    62 C62      1.4922  -2.4436  -7.2781   C.ar      1 RES1   0.0000
    63 H63      2.3469  -2.2715  -7.9239   H         1 RES1   0.0000
    64 C64      0.4663  -2.3110  -5.1314   C.ar      1 RES1   0.0000
    65 H65      0.5113  -2.0350  -4.0831   H         1 RES1   0.0000
@<TRIPOS>BOND
     1     1     5   ar
     2     1     6   ar
     3     1     2    1
     4     3     8   ar
     5     3     9   ar
     6     3     4    1
     7     5     9   ar
     8     5    11    1
     9     6     8   ar
    10     6     7    1
    11     8    12    1
    12     9    10    1
    13    11    20    2
    14    11    23    1
    15    13    14    1
    16    13    23   am
    17    13    24    1
    18    14    31    1
    19    14    34    1
    20    14    15    1
    21    16    24    1
    22    16    17    1
    23    16    18    1
    24    16    19    1
    25    20    21    1
    26    20    24    1
    27    21    40   ar
    28    21    45   ar
    29    22    23    2
    30    25    34    1
    31    25    37    1
    32    25    26    1
    33    25    27    1
    34    28    31    1
    35    28    37    1
    36    28    29    1
    37    28    30    1
    38    31    32    1
    39    31    33    1
    40    34    35    1
    41    34    36    1
    42    37    38    1
    43    37    39    1
    44    40    47   ar
    45    41    45   ar
    46    41    48   ar
    47    41    42    1
    48    43    47    1
    49    43    49    1
    50    43    44    1
    51    45    46    1
    52    47    48   ar
    53    49    51    1
    54    49    52    1
    55    49    50    1
    56    51    58   ar
    57    51    60   ar
    58    52    53    1
    59    52    54    1
    60    52    55    1
    61    56    62   ar
    62    56    64   ar
    63    56    57    1
    64    58    64   ar
    65    58    59    1
    66    60    62   ar
    67    60    61    1
    68    62    63    1
    69    64    65    1
@<TRIPOS>SUBSTRUCTURE
     1 RES1        1 GROUP             0 ****  ****    0  
@<TRIPOS>MOLECULE
LIGAND_00434
    65    69     1     0     0
SMALL
USER_CHARGES
****
Generated from the CSD

@<TRIPOS>ATOM
     1 C1      -0.6992  -4.2983 -11.5264   C.ar      1 RES1   0.0000
     2 H2      -0.1322  -5.0966 -11.0599   H         1 RES1   0.0000
     3 C3      -2.1077  -2.2360 -12.7075   C.ar      1 RES1   0.0000
     4 H4      -2.6528  -1.4188 -13.1682   H         1 RES1   0.0000
     5 C5      -1.2880  -4.5128 -12.7690   C.ar      1 RES1   0.0000
     6 C6      -0.8171  -3.0837 -10.8741   C.ar      1 RES1   0.0000
     7 H7      -0.3627  -2.9291  -9.9012   H         1 RES1   0.0000
     8 C8      -1.5178  -2.0824 -11.4853   C.ar      1 RES1   0.0000
     9 C9      -1.9939  -3.4590 -13.3426   C.ar      1 RES1   0.0000
    10 H10     -2.4707  -3.5947 -14.3067   H         1 RES1   0.0000
    11 C11     -1.1658  -5.8217 -13.4895   C.2       1 RES1   0.0000
    12 F12     -1.6332  -0.8834 -10.8521   F         1 RES1   0.0000
    13 N13     -1.2407  -7.9410 -14.1571   N.am      1 RES1   0.0000
    14 C14     -1.5106  -9.4109 -14.3092   C.3       1 RES1   0.0000
    15 H15     -1.1037  -9.7317 -15.2671   H         1 RES1   0.0000
    16 C16     -0.3253  -7.6742 -16.4956   C.3       1 RES1   0.0000
    17 H17      0.4003  -7.0362 -16.9957   H         1 RES1   0.0000
    18 H18      0.0799  -8.6833 -16.4586   H         1 RES1   0.0000
    19 H19     -1.2316  -7.6943 -17.0973   H         1 RES1   0.0000
    20 C20     -0.5870  -5.9122 -14.7311   C.2       1 RES1   0.0000
    21 C21      0.0604  -4.8376 -15.5265   C.ar      1 RES1   0.0000
    22 O22     -2.1509  -7.5590 -12.1278   O.2       1 RES1   0.0000
    23 C23     -1.5821  -7.1365 -13.1259   C.2       1 RES1   0.0000
    24 N24     -0.6102  -7.1787 -15.1485   N.pl3     1 RES1   0.0000
    25 C25     -1.0509 -11.6947 -13.3606   C.3       1 RES1   0.0000
    26 H26     -0.5769 -12.2261 -12.5367   H         1 RES1   0.0000
    27 H27     -0.6264 -12.0348 -14.3040   H         1 RES1   0.0000
    28 C28     -3.2421 -11.2268 -14.4245   C.3       1 RES1   0.0000
    29 H29     -2.8829 -11.5654 -15.3952   H         1 RES1   0.0000
    30 H30     -4.3095 -11.4268 -14.3425   H         1 RES1   0.0000
    31 C31     -3.0036  -9.7297 -14.2983   C.3       1 RES1   0.0000
    32 H32     -3.4825  -9.2211 -15.1336   H         1 RES1   0.0000
    33 H33     -3.4360  -9.3778 -13.3628   H         1 RES1   0.0000
    34 C34     -0.8083 -10.2034 -13.2060   C.3       1 RES1   0.0000
    35 H35     -1.1898  -9.8799 -12.2387   H         1 RES1   0.0000
    36 H36      0.2623 -10.0106 -13.2569   H         1 RES1   0.0000
    37 N37     -2.5207 -11.9689 -13.3491   N.4       1 RES1   1.0000
    38 H38     -2.8982 -11.6892 -12.4494   H         1 RES1   0.0000
    39 H39     -2.6684 -12.9641 -13.4834   H         1 RES1   0.0000
    40 N40     -0.4745  -4.5722 -16.7286   N.ar      1 RES1   0.0000
    41 C41      1.6905  -3.1773 -15.9048   C.ar      1 RES1   0.0000
    42 H42      2.5557  -2.6175 -15.5653   H         1 RES1   0.0000
    43 N43     -0.4029  -3.3687 -18.6792   N.pl3     1 RES1   0.0000
    44 H44     -0.0071  -2.5994 -19.2195   H         1 RES1   0.0000
    45 C45      1.1705  -4.1438 -15.0676   C.ar      1 RES1   0.0000
    46 H46      1.6110  -4.3522 -14.0982   H         1 RES1   0.0000
    47 C47      0.1180  -3.6205 -17.4677   C.ar      1 RES1   0.0000
    48 N48      1.1874  -2.8931 -17.1131   N.ar      1 RES1   0.0000
    49 C49     -1.5436  -4.0875 -19.2464   C.3       1 RES1   0.0000
    50 H50     -1.7563  -3.6782 -20.2462   H         1 RES1   0.0000
    51 C51     -2.7912  -3.9553 -18.3953   C.ar      1 RES1   0.0000
    52 C52     -1.1405  -5.5497 -19.3963   C.3       1 RES1   0.0000
    53 H53     -1.9637  -6.1383 -19.7959   H         1 RES1   0.0000
    54 H54     -0.2929  -5.6510 -20.0709   H         1 RES1   0.0000
    55 H55     -0.8592  -5.9713 -18.4335   H         1 RES1   0.0000
    56 C56     -5.0802  -3.7258 -16.8242   C.ar      1 RES1   0.0000
    57 H57     -5.9713  -3.6359 -16.2118   H         1 RES1   0.0000
    58 C58     -3.1053  -4.9234 -17.4523   C.ar      1 RES1   0.0000
    59 H59     -2.4518  -5.7802 -17.3258   H         1 RES1   0.0000
    60 C60     -3.6453  -2.8706 -18.5397   C.ar      1 RES1   0.0000
    61 H61     -3.4214  -2.1019 -19.2718   H         1 RES1   0.0000
    62 C62     -4.7825  -2.7577 -17.7578   C.ar      1 RES1   0.0000
    63 H63     -5.4405  -1.9040 -17.8812   H         1 RES1   0.0000
    64 C64     -4.2424  -4.8084 -16.6709   C.ar      1 RES1   0.0000
    65 H65     -4.4737  -5.5727 -15.9364   H         1 RES1   0.0000
@<TRIPOS>BOND
     1     1     5   ar
     2     1     6   ar
     3     1     2    1
     4     3     8   ar
     5     3     9   ar
     6     3     4    1
     7     5     9   ar
     8     5    11    1
     9     6     8   ar
    10     6     7    1
    11     8    12    1
    12     9    10    1
    13    11    20    2
    14    11    23    1
    15    13    14    1
    16    13    23   am
    17    13    24    1
    18    14    31    1
    19    14    34    1
    20    14    15    1
    21    16    24    1
    22    16    17    1
    23    16    18    1
    24    16    19    1
    25    20    21    1
    26    20    24    1
    27    21    40   ar
    28    21    45   ar
    29    22    23    2
    30    25    34    1
    31    25    37    1
    32    25    26    1
    33    25    27    1
    34    28    31    1
    35    28    37    1
    36    28    29    1
    37    28    30    1
    38    31    32    1
    39    31    33    1
    40    34    35    1
    41    34    36    1
    42    37    38    1
    43    37    39    1
    44    40    47   ar
    45    41    45   ar
    46    41    48   ar
    47    41    42    1
    48    43    47    1
    49    43    49    1
    50    43    44    1
    51    45    46    1
    52    47    48   ar
    53    49    51    1
    54    49    52    1
    55    49    50    1
    56    51    58   ar
    57    51    60   ar
    58    52    53    1
    59    52    54    1
    60    52    55    1
    61    56    62   ar
    62    56    64   ar
    63    56    57    1
    64    58    64   ar
    65    58    59    1
    66    60    62   ar
    67    60    61    1
    68    62    63    1
    69    64    65    1
@<TRIPOS>SUBSTRUCTURE
     1 RES1        1 GROUP             0 ****  ****    0  
@<TRIPOS>MOLECULE
LIGAND_00435
    65    69     1     0     0
SMALL
USER_CHARGES
****
Generated from the CSD

@<TRIPOS>ATOM
     1 C1      -0.1734  -3.7512 -12.4311   C.ar      1 RES1   0.0000
     2 H2       0.8163  -4.1080 -12.6950   H         1 RES1   0.0000
     3 C3      -2.6840  -2.8012 -11.7784   C.ar      1 RES1   0.0000
     4 H4      -3.6669  -2.4178 -11.5253   H         1 RES1   0.0000
     5 C5      -1.2881  -4.5128 -12.7691   C.ar      1 RES1   0.0000
     6 C6      -0.3010  -2.5429 -11.7691   C.ar      1 RES1   0.0000
     7 H7       0.5745  -1.9608 -11.5013   H         1 RES1   0.0000
     8 C8      -1.5563  -2.0986 -11.4624   C.ar      1 RES1   0.0000
     9 C9      -2.5420  -4.0138 -12.4278   C.ar      1 RES1   0.0000
    10 H10     -3.4308  -4.5851 -12.6702   H         1 RES1   0.0000
    11 C11     -1.1659  -5.8217 -13.4895   C.2       1 RES1   0.0000
    12 F12     -1.6896  -0.9084 -10.8162   F         1 RES1   0.0000
    13 N13     -1.2406  -7.9410 -14.1570   N.am      1 RES1   0.0000
    14 C14     -1.5106  -9.4109 -14.3092   C.3       1 RES1   0.0000
    15 H15     -1.1036  -9.7318 -15.2670   H         1 RES1   0.0000
    16 C16     -0.3252  -7.6743 -16.4955   C.3       1 RES1   0.0000
    17 H17      0.3996  -7.0356 -16.9960   H         1 RES1   0.0000
    18 H18      0.0811  -8.6829 -16.4584   H         1 RES1   0.0000
    19 H19     -1.2316  -7.6954 -17.0969   H         1 RES1   0.0000
    20 C20     -0.5870  -5.9122 -14.7311   C.2       1 RES1   0.0000
    21 C21      0.0604  -4.8376 -15.5265   C.ar      1 RES1   0.0000
    22 O22     -2.1510  -7.5590 -12.1278   O.2       1 RES1   0.0000
    23 C23     -1.5821  -7.1365 -13.1259   C.2       1 RES1   0.0000
    24 N24     -0.6101  -7.1788 -15.1485   N.pl3     1 RES1   0.0000
    25 C25     -1.0509 -11.6947 -13.3605   C.3       1 RES1   0.0000
    26 H26     -0.5768 -12.2260 -12.5365   H         1 RES1   0.0000
    27 H27     -0.6263 -12.0348 -14.3039   H         1 RES1   0.0000
    28 C28     -3.2420 -11.2269 -14.4245   C.3       1 RES1   0.0000
    29 H29     -2.8827 -11.5654 -15.3951   H         1 RES1   0.0000
    30 H30     -4.3093 -11.4269 -14.3426   H         1 RES1   0.0000
    31 C31     -3.0035  -9.7297 -14.2983   C.3       1 RES1   0.0000
    32 H32     -3.4824  -9.2211 -15.1337   H         1 RES1   0.0000
    33 H33     -3.4360  -9.3778 -13.3629   H         1 RES1   0.0000
    34 C34     -0.8083 -10.2033 -13.2059   C.3       1 RES1   0.0000
    35 H35     -1.1898  -9.8799 -12.2386   H         1 RES1   0.0000
    36 H36      0.2623 -10.0106 -13.2568   H         1 RES1   0.0000
    37 N37     -2.5206 -11.9690 -13.3491   N.4       1 RES1   1.0000
    38 H38     -2.8982 -11.6892 -12.4494   H         1 RES1   0.0000
    39 H39     -2.6683 -12.9641 -13.4833   H         1 RES1   0.0000
    40 N40      1.3518  -5.0181 -15.8447   N.ar      1 RES1   0.0000
    41 C41      0.0944  -2.7605 -16.6407   C.ar      1 RES1   0.0000
    42 H42     -0.4181  -1.8597 -16.9618   H         1 RES1   0.0000
    43 N43      3.2523  -4.2108 -16.8421   N.pl3     1 RES1   0.0000
    44 H44      3.7275  -5.0306 -16.4647   H         1 RES1   0.0000
    45 C45     -0.6202  -3.6935 -15.9166   C.ar      1 RES1   0.0000
    46 H46     -1.6635  -3.5377 -15.6629   H         1 RES1   0.0000
    47 C47      1.9548  -4.0414 -16.5414   C.ar      1 RES1   0.0000
    48 N48      1.3851  -2.9047 -16.9677   N.ar      1 RES1   0.0000
    49 C49      4.0431  -3.2612 -17.6245   C.3       1 RES1   0.0000
    50 H50      5.0694  -3.6491 -17.7171   H         1 RES1   0.0000
    51 C51      4.1018  -1.8897 -16.9810   C.ar      1 RES1   0.0000
    52 C52      3.4266  -3.1824 -19.0163   C.3       1 RES1   0.0000
    53 H53      3.9653  -2.4699 -19.6375   H         1 RES1   0.0000
    54 H54      3.4566  -4.1520 -19.5089   H         1 RES1   0.0000
    55 H55      2.3879  -2.8637 -18.9589   H         1 RES1   0.0000
    56 C56      4.1975   0.6349 -15.8073   C.ar      1 RES1   0.0000
    57 H57      4.2345   1.6179 -15.3496   H         1 RES1   0.0000
    58 C58      3.2071  -0.8978 -17.3562   C.ar      1 RES1   0.0000
    59 H59      2.4618  -1.1079 -18.1161   H         1 RES1   0.0000
    60 C60      5.0476  -1.5944 -16.0089   C.ar      1 RES1   0.0000
    61 H61      5.7588  -2.3535 -15.7005   H         1 RES1   0.0000
    62 C62      5.0937  -0.3392 -15.4261   C.ar      1 RES1   0.0000
    63 H63      5.8381  -0.1230 -14.6670   H         1 RES1   0.0000
    64 C64      3.2543   0.3565 -16.7719   C.ar      1 RES1   0.0000
    65 H65      2.5468   1.1213 -17.0744   H         1 RES1   0.0000
@<TRIPOS>BOND
     1     1     5   ar
     2     1     6   ar
     3     1     2    1
     4     3     8   ar
     5     3     9   ar
     6     3     4    1
     7     5     9   ar
     8     5    11    1
     9     6     8   ar
    10     6     7    1
    11     8    12    1
    12     9    10    1
    13    11    20    2
    14    11    23    1
    15    13    14    1
    16    13    23   am
    17    13    24    1
    18    14    31    1
    19    14    34    1
    20    14    15    1
    21    16    24    1
    22    16    17    1
    23    16    18    1
    24    16    19    1
    25    20    21    1
    26    20    24    1
    27    21    40   ar
    28    21    45   ar
    29    22    23    2
    30    25    34    1
    31    25    37    1
    32    25    26    1
    33    25    27    1
    34    28    31    1
    35    28    37    1
    36    28    29    1
    37    28    30    1
    38    31    32    1
    39    31    33    1
    40    34    35    1
    41    34    36    1
    42    37    38    1
    43    37    39    1
    44    40    47   ar
    45    41    45   ar
    46    41    48   ar
    47    41    42    1
    48    43    47    1
    49    43    49    1
    50    43    44    1
    51    45    46    1
    52    47    48   ar
    53    49    51    1
    54    49    52    1
    55    49    50    1
    56    51    58   ar
    57    51    60   ar
    58    52    53    1
    59    52    54    1
    60    52    55    1
    61    56    62   ar
    62    56    64   ar
    63    56    57    1
    64    58    64   ar
    65    58    59    1
    66    60    62   ar
    67    60    61    1
    68    62    63    1
    69    64    65    1
@<TRIPOS>SUBSTRUCTURE
     1 RES1        1 GROUP             0 ****  ****    0  
@<TRIPOS>MOLECULE
LIGAND_00436
    65    69     1     0     0
SMALL
USER_CHARGES
****
Generated from the CSD

@<TRIPOS>ATOM
     1 C1      -0.6994  -4.2982 -11.5265   C.ar      1 RES1   0.0000
     2 H2      -0.1323  -5.0965 -11.0599   H         1 RES1   0.0000
     3 C3      -2.1079  -2.2360 -12.7076   C.ar      1 RES1   0.0000
     4 H4      -2.6530  -1.4188 -13.1683   H         1 RES1   0.0000
     5 C5      -1.2881  -4.5128 -12.7691   C.ar      1 RES1   0.0000
     6 C6      -0.8173  -3.0836 -10.8742   C.ar      1 RES1   0.0000
     7 H7      -0.3629  -2.9290  -9.9013   H         1 RES1   0.0000
     8 C8      -1.5180  -2.0824 -11.4854   C.ar      1 RES1   0.0000
     9 C9      -1.9941  -3.4590 -13.3427   C.ar      1 RES1   0.0000
    10 H10     -2.4708  -3.5947 -14.3068   H         1 RES1   0.0000
    11 C11     -1.1659  -5.8217 -13.4895   C.2       1 RES1   0.0000
    12 F12     -1.6334  -0.8834 -10.8522   F         1 RES1   0.0000
    13 N13     -1.2406  -7.9410 -14.1570   N.am      1 RES1   0.0000
    14 C14     -1.5106  -9.4109 -14.3092   C.3       1 RES1   0.0000
    15 H15     -1.1036  -9.7318 -15.2670   H         1 RES1   0.0000
    16 C16     -0.3252  -7.6743 -16.4955   C.3       1 RES1   0.0000
    17 H17      0.3996  -7.0356 -16.9960   H         1 RES1   0.0000
    18 H18      0.0811  -8.6829 -16.4584   H         1 RES1   0.0000
    19 H19     -1.2316  -7.6954 -17.0969   H         1 RES1   0.0000
    20 C20     -0.5870  -5.9122 -14.7311   C.2       1 RES1   0.0000
    21 C21      0.0604  -4.8376 -15.5265   C.ar      1 RES1   0.0000
    22 O22     -2.1510  -7.5590 -12.1278   O.2       1 RES1   0.0000
    23 C23     -1.5821  -7.1365 -13.1259   C.2       1 RES1   0.0000
    24 N24     -0.6101  -7.1788 -15.1485   N.pl3     1 RES1   0.0000
    25 C25     -1.0509 -11.6947 -13.3605   C.3       1 RES1   0.0000
    26 H26     -0.5768 -12.2260 -12.5365   H         1 RES1   0.0000
    27 H27     -0.6263 -12.0348 -14.3039   H         1 RES1   0.0000
    28 C28     -3.2420 -11.2269 -14.4245   C.3       1 RES1   0.0000
    29 H29     -2.8827 -11.5654 -15.3951   H         1 RES1   0.0000
    30 H30     -4.3093 -11.4269 -14.3426   H         1 RES1   0.0000
    31 C31     -3.0035  -9.7297 -14.2983   C.3       1 RES1   0.0000
    32 H32     -3.4824  -9.2211 -15.1337   H         1 RES1   0.0000
    33 H33     -3.4360  -9.3778 -13.3629   H         1 RES1   0.0000
    34 C34     -0.8083 -10.2033 -13.2059   C.3       1 RES1   0.0000
    35 H35     -1.1898  -9.8799 -12.2386   H         1 RES1   0.0000
    36 H36      0.2623 -10.0106 -13.2568   H         1 RES1   0.0000
    37 N37     -2.5206 -11.9690 -13.3491   N.4       1 RES1   1.0000
    38 H38     -2.8982 -11.6892 -12.4494   H         1 RES1   0.0000
    39 H39     -2.6683 -12.9641 -13.4833   H         1 RES1   0.0000
    40 N40     -0.4745  -4.5722 -16.7286   N.ar      1 RES1   0.0000
    41 C41      1.6905  -3.1773 -15.9048   C.ar      1 RES1   0.0000
    42 H42      2.5557  -2.6175 -15.5653   H         1 RES1   0.0000
    43 N43     -0.4029  -3.3687 -18.6792   N.pl3     1 RES1   0.0000
    44 H44     -1.1686  -3.9597 -19.0027   H         1 RES1   0.0000
    45 C45      1.1705  -4.1438 -15.0676   C.ar      1 RES1   0.0000
    46 H46      1.6110  -4.3522 -14.0982   H         1 RES1   0.0000
    47 C47      0.1180  -3.6205 -17.4677   C.ar      1 RES1   0.0000
    48 N48      1.1874  -2.8931 -17.1131   N.ar      1 RES1   0.0000
    49 C49      0.1002  -2.3408 -19.5902   C.3       1 RES1   0.0000
    50 H50     -0.5095  -2.3532 -20.5069   H         1 RES1   0.0000
    51 C51      1.5500  -2.5661 -19.9717   C.ar      1 RES1   0.0000
    52 C52     -0.0782  -0.9900 -18.9069   C.3       1 RES1   0.0000
    53 H53      0.3015  -0.1866 -19.5346   H         1 RES1   0.0000
    54 H54     -1.1290  -0.7939 -18.7043   H         1 RES1   0.0000
    55 H55      0.4596  -0.9638 -17.9615   H         1 RES1   0.0000
    56 C56      4.2186  -2.9707 -20.6614   C.ar      1 RES1   0.0000
    57 H57      5.2579  -3.1289 -20.9296   H         1 RES1   0.0000
    58 C58      2.5679  -1.9321 -19.2738   C.ar      1 RES1   0.0000
    59 H59      2.3213  -1.2704 -18.4500   H         1 RES1   0.0000
    60 C60      1.8919  -3.4051 -21.0235   C.ar      1 RES1   0.0000
    61 H61      1.1131  -3.9105 -21.5850   H         1 RES1   0.0000
    62 C62      3.2188  -3.6056 -21.3649   C.ar      1 RES1   0.0000
    63 H63      3.4711  -4.2647 -22.1889   H         1 RES1   0.0000
    64 C64      3.8940  -2.1342 -19.6162   C.ar      1 RES1   0.0000
    65 H65      4.6789  -1.6327 -19.0598   H         1 RES1   0.0000
@<TRIPOS>BOND
     1     1     5   ar
     2     1     6   ar
     3     1     2    1
     4     3     8   ar
     5     3     9   ar
     6     3     4    1
     7     5     9   ar
     8     5    11    1
     9     6     8   ar
    10     6     7    1
    11     8    12    1
    12     9    10    1
    13    11    20    2
    14    11    23    1
    15    13    14    1
    16    13    23   am
    17    13    24    1
    18    14    31    1
    19    14    34    1
    20    14    15    1
    21    16    24    1
    22    16    17    1
    23    16    18    1
    24    16    19    1
    25    20    21    1
    26    20    24    1
    27    21    40   ar
    28    21    45   ar
    29    22    23    2
    30    25    34    1
    31    25    37    1
    32    25    26    1
    33    25    27    1
    34    28    31    1
    35    28    37    1
    36    28    29    1
    37    28    30    1
    38    31    32    1
    39    31    33    1
    40    34    35    1
    41    34    36    1
    42    37    38    1
    43    37    39    1
    44    40    47   ar
    45    41    45   ar
    46    41    48   ar
    47    41    42    1
    48    43    47    1
    49    43    49    1
    50    43    44    1
    51    45    46    1
    52    47    48   ar
    53    49    51    1
    54    49    52    1
    55    49    50    1
    56    51    58   ar
    57    51    60   ar
    58    52    53    1
    59    52    54    1
    60    52    55    1
    61    56    62   ar
    62    56    64   ar
    63    56    57    1
    64    58    64   ar
    65    58    59    1
    66    60    62   ar
    67    60    61    1
    68    62    63    1
    69    64    65    1
@<TRIPOS>SUBSTRUCTURE
     1 RES1        1 GROUP             0 ****  ****    0  
@<TRIPOS>MOLECULE
LIGAND_00437
    65    69     1     0     0
SMALL
USER_CHARGES
****
Generated from the CSD

@<TRIPOS>ATOM
     1 C1      -0.4427  -3.6874 -12.4150   C.ar      1 RES1   0.0000
     2 H2       0.5780  -4.0377 -12.5248   H         1 RES1   0.0000
     3 C3      -3.0298  -2.7544 -12.1543   C.ar      1 RES1   0.0000
     4 H4      -4.0425  -2.3777 -12.0550   H         1 RES1   0.0000
     5 C5      -1.4905  -4.4748 -12.8826   C.ar      1 RES1   0.0000
     6 C6      -0.6748  -2.4616 -11.8166   C.ar      1 RES1   0.0000
     7 H7       0.1480  -1.8591 -11.4465   H         1 RES1   0.0000
     8 C8      -1.9653  -2.0264 -11.7047   C.ar      1 RES1   0.0000
     9 C9      -2.7851  -3.9839 -12.7380   C.ar      1 RES1   0.0000
    10 H10     -3.6248  -4.5751 -13.0852   H         1 RES1   0.0000
    11 C11     -1.2544  -5.8030 -13.5363   C.2       1 RES1   0.0000
    12 F12     -2.2008  -0.8193 -11.1222   F         1 RES1   0.0000
    13 N13     -1.1783  -7.9481 -14.1158   N.am      1 RES1   0.0000
    14 C14     -1.3644  -9.4348 -14.2226   C.3       1 RES1   0.0000
    15 H15     -0.8769  -9.7716 -15.1363   H         1 RES1   0.0000
    16 C16     -0.1171  -7.7265 -16.3967   C.3       1 RES1   0.0000
    17 H17      0.6104  -7.0725 -16.8731   H         1 RES1   0.0000
    18 H18      0.3325  -8.7115 -16.2893   H         1 RES1   0.0000
    19 H19     -0.9770  -7.8161 -17.0571   H         1 RES1   0.0000
    20 C20     -0.5870  -5.9122 -14.7311   C.2       1 RES1   0.0000
    21 C21      0.0604  -4.8376 -15.5265   C.ar      1 RES1   0.0000
    22 O22     -2.2450  -7.5341 -12.1707   O.2       1 RES1   0.0000
    23 C23     -1.6297  -7.1223 -13.1455   C.2       1 RES1   0.0000
    24 N24     -0.5188  -7.1937 -15.0943   N.pl3     1 RES1   0.0000
    25 C25     -0.8596 -11.6524 -13.1482   C.3       1 RES1   0.0000
    26 H26     -0.4181 -12.1255 -12.2723   H         1 RES1   0.0000
    27 H27     -0.3545 -12.0069 -14.0455   H         1 RES1   0.0000
    28 C28     -2.9923 -11.3415 -14.3758   C.3       1 RES1   0.0000
    29 H29     -2.5504 -11.6990 -15.3047   H         1 RES1   0.0000
    30 H30     -4.0516 -11.5934 -14.3571   H         1 RES1   0.0000
    31 C31     -2.8370  -9.8302 -14.2981   C.3       1 RES1   0.0000
    32 H32     -3.2815  -9.3805 -15.1848   H         1 RES1   0.0000
    33 H33     -3.3500  -9.4647 -13.4098   H         1 RES1   0.0000
    34 C34     -0.7019 -10.1456 -13.0417   C.3       1 RES1   0.0000
    35 H35     -1.1649  -9.8045 -12.1169   H         1 RES1   0.0000
    36 H36      0.3588  -9.8995 -13.0289   H         1 RES1   0.0000
    37 N37     -2.3113 -12.0021 -13.2235   N.4       1 RES1   1.0000
    38 H38     -2.7635 -11.7072 -12.3640   H         1 RES1   0.0000
    39 H39     -2.4002 -13.0082 -13.3246   H         1 RES1   0.0000
    40 N40     -0.4745  -4.5722 -16.7286   N.ar      1 RES1   0.0000
    41 C41      1.6905  -3.1773 -15.9048   C.ar      1 RES1   0.0000
    42 H42      2.5557  -2.6175 -15.5653   H         1 RES1   0.0000
    43 N43     -0.4029  -3.3687 -18.6792   N.pl3     1 RES1   0.0000
    44 H44     -0.0070  -2.5995 -19.2195   H         1 RES1   0.0000
    45 C45      1.1705  -4.1438 -15.0676   C.ar      1 RES1   0.0000
    46 H46      1.6110  -4.3522 -14.0982   H         1 RES1   0.0000
    47 C47      0.1180  -3.6205 -17.4677   C.ar      1 RES1   0.0000
    48 N48      1.1874  -2.8931 -17.1131   N.ar      1 RES1   0.0000
    49 C49     -1.5437  -4.0874 -19.2464   C.3       1 RES1   0.0000
    50 H50     -1.7563  -3.6782 -20.2462   H         1 RES1   0.0000
    51 C51     -2.7913  -3.9551 -18.3953   C.ar      1 RES1   0.0000
    52 C52     -1.1407  -5.5497 -19.3961   C.3       1 RES1   0.0000
    53 H53     -1.9641  -6.1383 -19.7952   H         1 RES1   0.0000
    54 H54     -0.2935  -5.6511 -20.0712   H         1 RES1   0.0000
    55 H55     -0.8589  -5.9711 -18.4334   H         1 RES1   0.0000
    56 C56     -5.0802  -3.7253 -16.8242   C.ar      1 RES1   0.0000
    57 H57     -5.9714  -3.6353 -16.2119   H         1 RES1   0.0000
    58 C58     -3.1053  -4.9229 -17.4520   C.ar      1 RES1   0.0000
    59 H59     -2.4517  -5.7796 -17.3253   H         1 RES1   0.0000
    60 C60     -3.6454  -2.8705 -18.5400   C.ar      1 RES1   0.0000
    61 H61     -3.4215  -2.1019 -19.2723   H         1 RES1   0.0000
    62 C62     -4.7826  -2.7574 -17.7581   C.ar      1 RES1   0.0000
    63 H63     -5.4407  -1.9038 -17.8818   H         1 RES1   0.0000
    64 C64     -4.2424  -4.8078 -16.6706   C.ar      1 RES1   0.0000
    65 H65     -4.4737  -5.5719 -15.9360   H         1 RES1   0.0000
@<TRIPOS>BOND
     1     1     5   ar
     2     1     6   ar
     3     1     2    1
     4     3     8   ar
     5     3     9   ar
     6     3     4    1
     7     5     9   ar
     8     5    11    1
     9     6     8   ar
    10     6     7    1
    11     8    12    1
    12     9    10    1
    13    11    20    2
    14    11    23    1
    15    13    14    1
    16    13    23   am
    17    13    24    1
    18    14    31    1
    19    14    34    1
    20    14    15    1
    21    16    24    1
    22    16    17    1
    23    16    18    1
    24    16    19    1
    25    20    21    1
    26    20    24    1
    27    21    40   ar
    28    21    45   ar
    29    22    23    2
    30    25    34    1
    31    25    37    1
    32    25    26    1
    33    25    27    1
    34    28    31    1
    35    28    37    1
    36    28    29    1
    37    28    30    1
    38    31    32    1
    39    31    33    1
    40    34    35    1
    41    34    36    1
    42    37    38    1
    43    37    39    1
    44    40    47   ar
    45    41    45   ar
    46    41    48   ar
    47    41    42    1
    48    43    47    1
    49    43    49    1
    50    43    44    1
    51    45    46    1
    52    47    48   ar
    53    49    51    1
    54    49    52    1
    55    49    50    1
    56    51    58   ar
    57    51    60   ar
    58    52    53    1
    59    52    54    1
    60    52    55    1
    61    56    62   ar
    62    56    64   ar
    63    56    57    1
    64    58    64   ar
    65    58    59    1
    66    60    62   ar
    67    60    61    1
    68    62    63    1
    69    64    65    1
@<TRIPOS>SUBSTRUCTURE
     1 RES1        1 GROUP             0 ****  ****    0  
@<TRIPOS>MOLECULE
LIGAND_00438
    65    69     1     0     0
SMALL
USER_CHARGES
****
Generated from the CSD

@<TRIPOS>ATOM
     1 C1      -0.4419  -3.6877 -12.4146   C.ar      1 RES1   0.0000
     2 H2       0.5786  -4.0383 -12.5246   H         1 RES1   0.0000
     3 C3      -3.0289  -2.7543 -12.1536   C.ar      1 RES1   0.0000
     4 H4      -4.0415  -2.3774 -12.0543   H         1 RES1   0.0000
     5 C5      -1.4900  -4.4749 -12.8823   C.ar      1 RES1   0.0000
     6 C6      -0.6738  -2.4620 -11.8161   C.ar      1 RES1   0.0000
     7 H7       0.1491  -1.8597 -11.4459   H         1 RES1   0.0000
     8 C8      -1.9642  -2.0266 -11.7040   C.ar      1 RES1   0.0000
     9 C9      -2.7844  -3.9837 -12.7376   C.ar      1 RES1   0.0000
    10 H10     -3.6243  -4.5747 -13.0848   H         1 RES1   0.0000
    11 C11     -1.2541  -5.8031 -13.5362   C.2       1 RES1   0.0000
    12 F12     -2.1994  -0.8195 -11.1213   F         1 RES1   0.0000
    13 N13     -1.1785  -7.9480 -14.1159   N.am      1 RES1   0.0000
    14 C14     -1.3648  -9.4348 -14.2228   C.3       1 RES1   0.0000
    15 H15     -0.8773  -9.7715 -15.1365   H         1 RES1   0.0000
    16 C16     -0.1176  -7.7264 -16.3969   C.3       1 RES1   0.0000
    17 H17      0.6086  -7.0716 -16.8741   H         1 RES1   0.0000
    18 H18      0.3333  -8.7108 -16.2896   H         1 RES1   0.0000
    19 H19     -0.9779  -7.8172 -17.0567   H         1 RES1   0.0000
    20 C20     -0.5870  -5.9122 -14.7311   C.2       1 RES1   0.0000
    21 C21      0.0604  -4.8376 -15.5265   C.ar      1 RES1   0.0000
    22 O22     -2.2447  -7.5342 -12.1706   O.2       1 RES1   0.0000
    23 C23     -1.6296  -7.1223 -13.1454   C.2       1 RES1   0.0000
    24 N24     -0.5190  -7.1937 -15.0945   N.pl3     1 RES1   0.0000
    25 C25     -0.8603 -11.6525 -13.1486   C.3       1 RES1   0.0000
    26 H26     -0.4189 -12.1258 -12.2727   H         1 RES1   0.0000
    27 H27     -0.3553 -12.0070 -14.0460   H         1 RES1   0.0000
    28 C28     -2.9929 -11.3412 -14.3762   C.3       1 RES1   0.0000
    29 H29     -2.5512 -11.6986 -15.3052   H         1 RES1   0.0000
    30 H30     -4.0523 -11.5930 -14.3576   H         1 RES1   0.0000
    31 C31     -2.8375  -9.8300 -14.2984   C.3       1 RES1   0.0000
    32 H32     -3.2818  -9.3801 -15.1850   H         1 RES1   0.0000
    33 H33     -3.3504  -9.4644 -13.4100   H         1 RES1   0.0000
    34 C34     -0.7024 -10.1457 -13.0420   C.3       1 RES1   0.0000
    35 H35     -1.1653  -9.8047 -12.1172   H         1 RES1   0.0000
    36 H36      0.3584  -9.8998 -13.0292   H         1 RES1   0.0000
    37 N37     -2.3121 -12.0020 -13.2240   N.4       1 RES1   1.0000
    38 H38     -2.7642 -11.7071 -12.3645   H         1 RES1   0.0000
    39 H39     -2.4011 -13.0081 -13.3252   H         1 RES1   0.0000
    40 N40     -0.4745  -4.5722 -16.7286   N.ar      1 RES1   0.0000
    41 C41      1.6905  -3.1773 -15.9048   C.ar      1 RES1   0.0000
    42 H42      2.5557  -2.6175 -15.5653   H         1 RES1   0.0000
    43 N43     -0.4029  -3.3687 -18.6792   N.pl3     1 RES1   0.0000
    44 H44     -1.1687  -3.9596 -19.0027   H         1 RES1   0.0000
    45 C45      1.1705  -4.1438 -15.0676   C.ar      1 RES1   0.0000
    46 H46      1.6110  -4.3522 -14.0982   H         1 RES1   0.0000
    47 C47      0.1180  -3.6205 -17.4677   C.ar      1 RES1   0.0000
    48 N48      1.1874  -2.8931 -17.1131   N.ar      1 RES1   0.0000
    49 C49      0.1003  -2.3409 -19.5902   C.3       1 RES1   0.0000
    50 H50     -0.5096  -2.3532 -20.5069   H         1 RES1   0.0000
    51 C51      1.5500  -2.5665 -19.9720   C.ar      1 RES1   0.0000
    52 C52     -0.0777  -0.9901 -18.9069   C.3       1 RES1   0.0000
    53 H53      0.3020  -0.1867 -19.5347   H         1 RES1   0.0000
    54 H54     -1.1285  -0.7938 -18.7042   H         1 RES1   0.0000
    55 H55      0.4602  -0.9639 -17.9616   H         1 RES1   0.0000
    56 C56      4.2184  -2.9716 -20.6619   C.ar      1 RES1   0.0000
    57 H57      5.2576  -3.1300 -20.9303   H         1 RES1   0.0000
    58 C58      2.5681  -1.9327 -19.2742   C.ar      1 RES1   0.0000
    59 H59      2.3217  -1.2710 -18.4504   H         1 RES1   0.0000
    60 C60      1.8916  -3.4056 -21.0237   C.ar      1 RES1   0.0000
    61 H61      1.1127  -3.9108 -21.5851   H         1 RES1   0.0000
    62 C62      3.2184  -3.6063 -21.3653   C.ar      1 RES1   0.0000
    63 H63      3.4705  -4.2654 -22.1893   H         1 RES1   0.0000
    64 C64      3.8942  -2.1351 -19.6167   C.ar      1 RES1   0.0000
    65 H65      4.6792  -1.6337 -19.0605   H         1 RES1   0.0000
@<TRIPOS>BOND
     1     1     5   ar
     2     1     6   ar
     3     1     2    1
     4     3     8   ar
     5     3     9   ar
     6     3     4    1
     7     5     9   ar
     8     5    11    1
     9     6     8   ar
    10     6     7    1
    11     8    12    1
    12     9    10    1
    13    11    20    2
    14    11    23    1
    15    13    14    1
    16    13    23   am
    17    13    24    1
    18    14    31    1
    19    14    34    1
    20    14    15    1
    21    16    24    1
    22    16    17    1
    23    16    18    1
    24    16    19    1
    25    20    21    1
    26    20    24    1
    27    21    40   ar
    28    21    45   ar
    29    22    23    2
    30    25    34    1
    31    25    37    1
    32    25    26    1
    33    25    27    1
    34    28    31    1
    35    28    37    1
    36    28    29    1
    37    28    30    1
    38    31    32    1
    39    31    33    1
    40    34    35    1
    41    34    36    1
    42    37    38    1
    43    37    39    1
    44    40    47   ar
    45    41    45   ar
    46    41    48   ar
    47    41    42    1
    48    43    47    1
    49    43    49    1
    50    43    44    1
    51    45    46    1
    52    47    48   ar
    53    49    51    1
    54    49    52    1
    55    49    50    1
    56    51    58   ar
    57    51    60   ar
    58    52    53    1
    59    52    54    1
    60    52    55    1
    61    56    62   ar
    62    56    64   ar
    63    56    57    1
    64    58    64   ar
    65    58    59    1
    66    60    62   ar
    67    60    61    1
    68    62    63    1
    69    64    65    1
@<TRIPOS>SUBSTRUCTURE
     1 RES1        1 GROUP             0 ****  ****    0  
@<TRIPOS>MOLECULE
LIGAND_00439
    65    69     1     0     0
SMALL
USER_CHARGES
****
Generated from the CSD

@<TRIPOS>ATOM
     1 C1      -0.3079  -4.3800 -11.5417   C.ar      1 RES1   0.0000
     2 H2       0.3351  -5.1852 -11.2030   H         1 RES1   0.0000
     3 C3      -1.9093  -2.3000 -12.4023   C.ar      1 RES1   0.0000
     4 H4      -2.5299  -1.4758 -12.7383   H         1 RES1   0.0000
     5 C5      -1.0925  -4.5621 -12.6766   C.ar      1 RES1   0.0000
     6 C6      -0.3260  -3.1890 -10.8376   C.ar      1 RES1   0.0000
     7 H7       0.2820  -3.0598  -9.9484   H         1 RES1   0.0000
     8 C8      -1.1264  -2.1781 -11.2899   C.ar      1 RES1   0.0000
     9 C9      -1.8923  -3.5001 -13.0891   C.ar      1 RES1   0.0000
    10 H10     -2.5210  -3.6109 -13.9652   H         1 RES1   0.0000
    11 C11     -1.0806  -5.8451 -13.4518   C.2       1 RES1   0.0000
    12 F12     -1.1451  -1.0020 -10.6055   F         1 RES1   0.0000
    13 N13     -1.3014  -7.9300 -14.1916   N.am      1 RES1   0.0000
    14 C14     -1.6522  -9.3784 -14.3805   C.3       1 RES1   0.0000
    15 H15     -1.3230  -9.6789 -15.3741   H         1 RES1   0.0000
    16 C16     -0.5246  -7.6118 -16.5734   C.3       1 RES1   0.0000
    17 H17      0.1980  -6.9883 -17.0958   H         1 RES1   0.0000
    18 H18     -0.1676  -8.6392 -16.6007   H         1 RES1   0.0000
    19 H19     -1.4672  -7.5656 -17.1148   H         1 RES1   0.0000
    20 C20     -0.5870  -5.9122 -14.7311   C.2       1 RES1   0.0000
    21 C21      0.0604  -4.8376 -15.5265   C.ar      1 RES1   0.0000
    22 O22     -2.0611  -7.5883 -12.0943   O.2       1 RES1   0.0000
    23 C23     -1.5368  -7.1527 -13.1110   C.2       1 RES1   0.0000
    24 N24     -0.6986  -7.1584 -15.1930   N.pl3     1 RES1   0.0000
    25 C25     -1.2458 -11.7175 -13.5497   C.3       1 RES1   0.0000
    26 H26     -0.7470 -12.3031 -12.7789   H         1 RES1   0.0000
    27 H27     -0.8991 -12.0386 -14.5308   H         1 RES1   0.0000
    28 C28     -3.4744 -11.1057 -14.4502   C.3       1 RES1   0.0000
    29 H29     -3.1944 -11.4211 -15.4542   H         1 RES1   0.0000
    30 H30     -4.5429 -11.2590 -14.3063   H         1 RES1   0.0000
    31 C31     -3.1553  -9.6276 -14.2841   C.3       1 RES1   0.0000
    32 H32     -3.6607  -9.0640 -15.0668   H         1 RES1   0.0000
    33 H33     -3.5098  -9.2940 -13.3099   H         1 RES1   0.0000
    34 C34     -0.9210 -10.2465 -13.3558   C.3       1 RES1   0.0000
    35 H35     -1.2241  -9.9450 -12.3542   H         1 RES1   0.0000
    36 H36      0.1523 -10.1019 -13.4692   H         1 RES1   0.0000
    37 N37     -2.7235 -11.9233 -13.4525   N.4       1 RES1   1.0000
    38 H38     -3.0291 -11.6629 -12.5203   H         1 RES1   0.0000
    39 H39     -2.9280 -12.9044 -13.6139   H         1 RES1   0.0000
    40 N40      1.3518  -5.0181 -15.8447   N.ar      1 RES1   0.0000
    41 C41      0.0944  -2.7605 -16.6407   C.ar      1 RES1   0.0000
    42 H42     -0.4181  -1.8597 -16.9618   H         1 RES1   0.0000
    43 N43      3.2523  -4.2108 -16.8421   N.pl3     1 RES1   0.0000
    44 H44      3.7275  -5.0306 -16.4646   H         1 RES1   0.0000
    45 C45     -0.6202  -3.6935 -15.9166   C.ar      1 RES1   0.0000
    46 H46     -1.6635  -3.5377 -15.6629   H         1 RES1   0.0000
    47 C47      1.9548  -4.0414 -16.5414   C.ar      1 RES1   0.0000
    48 N48      1.3851  -2.9047 -16.9677   N.ar      1 RES1   0.0000
    49 C49      4.0431  -3.2612 -17.6246   C.3       1 RES1   0.0000
    50 H50      5.0693  -3.6492 -17.7172   H         1 RES1   0.0000
    51 C51      4.1019  -1.8897 -16.9811   C.ar      1 RES1   0.0000
    52 C52      3.4265  -3.1824 -19.0163   C.3       1 RES1   0.0000
    53 H53      3.9657  -2.4707 -19.6379   H         1 RES1   0.0000
    54 H54      3.4555  -4.1522 -19.5086   H         1 RES1   0.0000
    55 H55      2.3881  -2.8628 -18.9589   H         1 RES1   0.0000
    56 C56      4.1978   0.6349 -15.8075   C.ar      1 RES1   0.0000
    57 H57      4.2349   1.6179 -15.3497   H         1 RES1   0.0000
    58 C58      3.2073  -0.8977 -17.3563   C.ar      1 RES1   0.0000
    59 H59      2.4619  -1.1078 -18.1162   H         1 RES1   0.0000
    60 C60      5.0477  -1.5946 -16.0090   C.ar      1 RES1   0.0000
    61 H61      5.7589  -2.3537 -15.7006   H         1 RES1   0.0000
    62 C62      5.0940  -0.3394 -15.4262   C.ar      1 RES1   0.0000
    63 H63      5.8384  -0.1231 -14.6671   H         1 RES1   0.0000
    64 C64      3.2546   0.3565 -16.7720   C.ar      1 RES1   0.0000
    65 H65      2.5472   1.1214 -17.0746   H         1 RES1   0.0000
@<TRIPOS>BOND
     1     1     5   ar
     2     1     6   ar
     3     1     2    1
     4     3     8   ar
     5     3     9   ar
     6     3     4    1
     7     5     9   ar
     8     5    11    1
     9     6     8   ar
    10     6     7    1
    11     8    12    1
    12     9    10    1
    13    11    20    2
    14    11    23    1
    15    13    14    1
    16    13    23   am
    17    13    24    1
    18    14    31    1
    19    14    34    1
    20    14    15    1
    21    16    24    1
    22    16    17    1
    23    16    18    1
    24    16    19    1
    25    20    21    1
    26    20    24    1
    27    21    40   ar
    28    21    45   ar
    29    22    23    2
    30    25    34    1
    31    25    37    1
    32    25    26    1
    33    25    27    1
    34    28    31    1
    35    28    37    1
    36    28    29    1
    37    28    30    1
    38    31    32    1
    39    31    33    1
    40    34    35    1
    41    34    36    1
    42    37    38    1
    43    37    39    1
    44    40    47   ar
    45    41    45   ar
    46    41    48   ar
    47    41    42    1
    48    43    47    1
    49    43    49    1
    50    43    44    1
    51    45    46    1
    52    47    48   ar
    53    49    51    1
    54    49    52    1
    55    49    50    1
    56    51    58   ar
    57    51    60   ar
    58    52    53    1
    59    52    54    1
    60    52    55    1
    61    56    62   ar
    62    56    64   ar
    63    56    57    1
    64    58    64   ar
    65    58    59    1
    66    60    62   ar
    67    60    61    1
    68    62    63    1
    69    64    65    1
@<TRIPOS>SUBSTRUCTURE
     1 RES1        1 GROUP             0 ****  ****    0  
@<TRIPOS>MOLECULE
LIGAND_00440
    65    69     1     0     0
SMALL
USER_CHARGES
****
Generated from the CSD

@<TRIPOS>ATOM
     1 C1       0.7089  -4.4950 -12.0417   C.ar      1 RES1   0.0000
     2 H2       1.4786  -5.2109 -12.3093   H         1 RES1   0.0000
     3 C3      -1.2240  -2.6372 -11.3754   C.ar      1 RES1   0.0000
     4 H4      -1.9759  -1.8992 -11.1161   H         1 RES1   0.0000
     5 C5      -0.5980  -4.7021 -12.4727   C.ar      1 RES1   0.0000
     6 C6       1.0498  -3.3899 -11.2820   C.ar      1 RES1   0.0000
     7 H7       2.0695  -3.2420 -10.9425   H         1 RES1   0.0000
     8 C8       0.0718  -2.4876 -10.9710   C.ar      1 RES1   0.0000
     9 C9      -1.5542  -3.7529 -12.1226   C.ar      1 RES1   0.0000
    10 H10     -2.5832  -3.8873 -12.4362   H         1 RES1   0.0000
    11 C11     -0.9816  -5.8923 -13.2993   C.2       1 RES1   0.0000
    12 F12      0.4010  -1.3955 -10.2288   F         1 RES1   0.0000
    13 N13     -1.2406  -7.9410 -14.1570   N.am      1 RES1   0.0000
    14 C14     -1.5106  -9.4109 -14.3092   C.3       1 RES1   0.0000
    15 H15     -1.0955  -9.7337 -15.2629   H         1 RES1   0.0000
    16 C16     -1.6896  -7.3166 -16.4840   C.3       1 RES1   0.0000
    17 H17     -1.6169  -6.4020 -17.0688   H         1 RES1   0.0000
    18 H18     -0.8095  -7.9218 -16.6914   H         1 RES1   0.0000
    19 H19     -2.5663  -7.8660 -16.8203   H         1 RES1   0.0000
    20 C20     -1.5187  -5.7765 -14.5398   C.2       1 RES1   0.0000
    21 C21     -1.7851  -4.5377 -15.3151   C.ar      1 RES1   0.0000
    22 O22     -0.4063  -7.8729 -12.0073   O.2       1 RES1   0.0000
    23 C23     -0.8095  -7.2933 -13.0073   C.2       1 RES1   0.0000
    24 N24     -1.7865  -7.0125 -15.0559   N.3       1 RES1   0.0000
    25 C25     -1.0612 -11.6935 -13.3529   C.3       1 RES1   0.0000
    26 H26     -0.5949 -12.2240 -12.5240   H         1 RES1   0.0000
    27 H27     -0.6287 -12.0356 -14.2920   H         1 RES1   0.0000
    28 C28     -3.2426 -11.2255 -14.4367   C.3       1 RES1   0.0000
    29 H29     -2.8751 -11.5660 -15.4036   H         1 RES1   0.0000
    30 H30     -4.3108 -11.4244 -14.3638   H         1 RES1   0.0000
    31 C31     -3.0038  -9.7284 -14.3108   C.3       1 RES1   0.0000
    32 H32     -3.4750  -9.2207 -15.1512   H         1 RES1   0.0000
    33 H33     -3.4442  -9.3746 -13.3798   H         1 RES1   0.0000
    34 C34     -0.8186 -10.2022 -13.1986   C.3       1 RES1   0.0000
    35 H35     -1.2083  -9.8769 -12.2351   H         1 RES1   0.0000
    36 H36      0.2525 -10.0105 -13.2404   H         1 RES1   0.0000
    37 N37     -2.5313 -11.9665 -13.3538   N.4       1 RES1   1.0000
    38 H38     -2.9165 -11.6850 -12.4579   H         1 RES1   0.0000
    39 H39     -2.6787 -12.9618 -13.4878   H         1 RES1   0.0000
    40 N40     -3.0605  -4.3081 -15.6646   N.ar      1 RES1   0.0000
    41 C41     -1.1457  -2.5505 -16.4102   C.ar      1 RES1   0.0000
    42 H42     -0.3729  -1.8465 -16.7008   H         1 RES1   0.0000
    43 N43     -4.5819  -2.9846 -16.7564   N.pl3     1 RES1   0.0000
    44 H44     -4.7906  -2.1260 -17.2657   H         1 RES1   0.0000
    45 C45     -0.7740  -3.6600 -15.6778   C.ar      1 RES1   0.0000
    46 H46      0.2601  -3.8378 -15.4015   H         1 RES1   0.0000
    47 C47     -3.3098  -3.2046 -16.3879   C.ar      1 RES1   0.0000
    48 N48     -2.4066  -2.2954 -16.7828   N.ar      1 RES1   0.0000
    49 C49     -5.6976  -3.8682 -16.4185   C.3       1 RES1   0.0000
    50 H50     -5.5013  -4.3236 -15.4354   H         1 RES1   0.0000
    51 C51     -5.8852  -4.9769 -17.4353   C.ar      1 RES1   0.0000
    52 C52     -6.9523  -3.0091 -16.3136   C.3       1 RES1   0.0000
    53 H53     -7.8117  -3.6136 -16.0310   H         1 RES1   0.0000
    54 H54     -6.8264  -2.2288 -15.5660   H         1 RES1   0.0000
    55 H55     -7.1724  -2.5326 -17.2666   H         1 RES1   0.0000
    56 C56     -6.2243  -7.0050 -19.3148   C.ar      1 RES1   0.0000
    57 H57     -6.3557  -7.7952 -20.0465   H         1 RES1   0.0000
    58 C58     -5.5420  -4.7777 -18.7648   C.ar      1 RES1   0.0000
    59 H59     -5.1371  -3.8204 -19.0760   H         1 RES1   0.0000
    60 C60     -6.4040  -6.2096 -17.0635   C.ar      1 RES1   0.0000
    61 H61     -6.6813  -6.3882 -16.0299   H         1 RES1   0.0000
    62 C62     -6.5716  -7.2169 -17.9987   C.ar      1 RES1   0.0000
    63 H63     -6.9776  -8.1755 -17.6935   H         1 RES1   0.0000
    64 C64     -5.7096  -5.7862 -19.6984   C.ar      1 RES1   0.0000
    65 H65     -5.4348  -5.6159 -20.7340   H         1 RES1   0.0000
@<TRIPOS>BOND
     1     1     5   ar
     2     1     6   ar
     3     1     2    1
     4     3     8   ar
     5     3     9   ar
     6     3     4    1
     7     5     9   ar
     8     5    11    1
     9     6     8   ar
    10     6     7    1
    11     8    12    1
    12     9    10    1
    13    11    20    2
    14    11    23    1
    15    13    14    1
    16    13    23   am
    17    13    24    1
    18    14    31    1
    19    14    34    1
    20    14    15    1
    21    16    24    1
    22    16    17    1
    23    16    18    1
    24    16    19    1
    25    20    21    1
    26    20    24    1
    27    21    40   ar
    28    21    45   ar
    29    22    23    2
    30    25    34    1
    31    25    37    1
    32    25    26    1
    33    25    27    1
    34    28    31    1
    35    28    37    1
    36    28    29    1
    37    28    30    1
    38    31    32    1
    39    31    33    1
    40    34    35    1
    41    34    36    1
    42    37    38    1
    43    37    39    1
    44    40    47   ar
    45    41    45   ar
    46    41    48   ar
    47    41    42    1
    48    43    47    1
    49    43    49    1
    50    43    44    1
    51    45    46    1
    52    47    48   ar
    53    49    51    1
    54    49    52    1
    55    49    50    1
    56    51    58   ar
    57    51    60   ar
    58    52    53    1
    59    52    54    1
    60    52    55    1
    61    56    62   ar
    62    56    64   ar
    63    56    57    1
    64    58    64   ar
    65    58    59    1
    66    60    62   ar
    67    60    61    1
    68    62    63    1
    69    64    65    1
@<TRIPOS>SUBSTRUCTURE
     1 RES1        1 GROUP             0 ****  ****    0  
@<TRIPOS>MOLECULE
LIGAND_00441
    65    69     1     0     0
SMALL
USER_CHARGES
****
Generated from the CSD

@<TRIPOS>ATOM
     1 C1       0.6144  -3.8058 -13.1504   C.ar      1 RES1   0.0000
     2 H2       0.7139  -3.8323 -14.2302   H         1 RES1   0.0000
     3 C3       0.3458  -3.6942 -10.4032   C.ar      1 RES1   0.0000
     4 H4       0.2383  -3.6393  -9.3250   H         1 RES1   0.0000
     5 C5      -0.0857  -4.8192 -12.5027   C.ar      1 RES1   0.0000
     6 C6       1.1827  -2.7594 -12.4457   C.ar      1 RES1   0.0000
     7 H7       1.7349  -1.9791 -12.9585   H         1 RES1   0.0000
     8 C8       1.0302  -2.7309 -11.0880   C.ar      1 RES1   0.0000
     9 C9      -0.2057  -4.7416 -11.1180   C.ar      1 RES1   0.0000
    10 H10     -0.7387  -5.5183 -10.5814   H         1 RES1   0.0000
    11 C11     -0.7100  -5.9570 -13.2529   C.2       1 RES1   0.0000
    12 F12      1.5818  -1.7019 -10.3890   F         1 RES1   0.0000
    13 N13     -1.1820  -7.9259 -14.2020   N.am      1 RES1   0.0000
    14 C14     -1.3997  -9.3944 -14.4314   C.3       1 RES1   0.0000
    15 H15     -1.0279  -9.6399 -15.4251   H         1 RES1   0.0000
    16 C16     -2.6151  -7.1276 -16.0228   C.3       1 RES1   0.0000
    17 H17     -2.5544  -6.1829 -16.5591   H         1 RES1   0.0000
    18 H18     -2.0329  -7.8658 -16.5705   H         1 RES1   0.0000
    19 H19     -3.6542  -7.4499 -16.0190   H         1 RES1   0.0000
    20 C20     -1.7295  -5.7802 -14.1304   C.2       1 RES1   0.0000
    21 C21     -2.3761  -4.5089 -14.5456   C.ar      1 RES1   0.0000
    22 O22      0.4810  -7.9777 -12.6040   O.2       1 RES1   0.0000
    23 C23     -0.3439  -7.3512 -13.2561   C.2       1 RES1   0.0000
    24 N24     -2.1144  -6.9809 -14.6556   N.3       1 RES1   0.0000
    25 C25     -0.8020 -11.7085 -13.6475   C.3       1 RES1   0.0000
    26 H26     -0.2668 -12.2669 -12.8809   H         1 RES1   0.0000
    27 H27     -0.4112 -11.9733 -14.6289   H         1 RES1   0.0000
    28 C28     -3.0601 -11.2734 -14.5768   C.3       1 RES1   0.0000
    29 H29     -2.7359 -11.5379 -15.5822   H         1 RES1   0.0000
    30 H30     -4.1132 -11.5239 -14.4574   H         1 RES1   0.0000
    31 C31     -2.8762  -9.7776 -14.3701   C.3       1 RES1   0.0000
    32 H32     -3.4159  -9.2414 -15.1493   H         1 RES1   0.0000
    33 H33     -3.2758  -9.5009 -13.3956   H         1 RES1   0.0000
    34 C34     -0.6124 -10.2199 -13.4131   C.3       1 RES1   0.0000
    35 H35     -0.9583  -9.9714 -12.4109   H         1 RES1   0.0000
    36 H36      0.4458  -9.9784 -13.5022   H         1 RES1   0.0000
    37 N37     -2.2572 -12.0463 -13.5840   N.4       1 RES1   1.0000
    38 H38     -2.6008 -11.8371 -12.6521   H         1 RES1   0.0000
    39 H39     -2.3711 -13.0372 -13.7721   H         1 RES1   0.0000
    40 N40     -3.6642  -4.3484 -14.2041   N.ar      1 RES1   0.0000
    41 C41     -2.4119  -2.4017 -15.6017   C.ar      1 RES1   0.0000
    42 H42     -1.9013  -1.6221 -16.1574   H         1 RES1   0.0000
    43 N43     -5.5611  -3.0618 -14.2740   N.pl3     1 RES1   0.0000
    44 H44     -6.0277  -3.8302 -13.7921   H         1 RES1   0.0000
    45 C45     -1.6982  -3.5333 -15.2618   C.ar      1 RES1   0.0000
    46 H46     -0.6576  -3.6545 -15.5439   H         1 RES1   0.0000
    47 C47     -4.2667  -3.2144 -14.5964   C.ar      1 RES1   0.0000
    48 N48     -3.6994  -2.2131 -15.2848   N.ar      1 RES1   0.0000
    49 C49     -6.3608  -1.8888 -14.6262   C.3       1 RES1   0.0000
    50 H50     -6.0056  -1.4972 -15.5920   H         1 RES1   0.0000
    51 C51     -6.2567  -0.7863 -13.5907   C.ar      1 RES1   0.0000
    52 C52     -7.8055  -2.3462 -14.7895   C.3       1 RES1   0.0000
    53 H53     -8.4427  -1.5152 -15.0848   H         1 RES1   0.0000
    54 H54     -7.8834  -3.1199 -15.5505   H         1 RES1   0.0000
    55 H55     -8.1884  -2.7506 -13.8549   H         1 RES1   0.0000
    56 C56     -6.0632   1.2288 -11.6770   C.ar      1 RES1   0.0000
    57 H57     -5.9871   2.0138 -10.9319   H         1 RES1   0.0000
    58 C58     -6.0342  -1.0934 -12.2561   C.ar      1 RES1   0.0000
    59 H59     -5.9349  -2.1308 -11.9543   H         1 RES1   0.0000
    60 C60     -6.3832   0.5485 -13.9503   C.ar      1 RES1   0.0000
    61 H61     -6.5593   0.8129 -14.9877   H         1 RES1   0.0000
    62 C62     -6.2864   1.5490 -12.9981   C.ar      1 RES1   0.0000
    63 H63     -6.3866   2.5880 -13.2939   H         1 RES1   0.0000
    64 C64     -5.9370  -0.0916 -11.3054   C.ar      1 RES1   0.0000
    65 H65     -5.7610  -0.3474 -10.2659   H         1 RES1   0.0000
@<TRIPOS>BOND
     1     1     5   ar
     2     1     6   ar
     3     1     2    1
     4     3     8   ar
     5     3     9   ar
     6     3     4    1
     7     5     9   ar
     8     5    11    1
     9     6     8   ar
    10     6     7    1
    11     8    12    1
    12     9    10    1
    13    11    20    2
    14    11    23    1
    15    13    14    1
    16    13    23   am
    17    13    24    1
    18    14    31    1
    19    14    34    1
    20    14    15    1
    21    16    24    1
    22    16    17    1
    23    16    18    1
    24    16    19    1
    25    20    21    1
    26    20    24    1
    27    21    40   ar
    28    21    45   ar
    29    22    23    2
    30    25    34    1
    31    25    37    1
    32    25    26    1
    33    25    27    1
    34    28    31    1
    35    28    37    1
    36    28    29    1
    37    28    30    1
    38    31    32    1
    39    31    33    1
    40    34    35    1
    41    34    36    1
    42    37    38    1
    43    37    39    1
    44    40    47   ar
    45    41    45   ar
    46    41    48   ar
    47    41    42    1
    48    43    47    1
    49    43    49    1
    50    43    44    1
    51    45    46    1
    52    47    48   ar
    53    49    51    1
    54    49    52    1
    55    49    50    1
    56    51    58   ar
    57    51    60   ar
    58    52    53    1
    59    52    54    1
    60    52    55    1
    61    56    62   ar
    62    56    64   ar
    63    56    57    1
    64    58    64   ar
    65    58    59    1
    66    60    62   ar
    67    60    61    1
    68    62    63    1
    69    64    65    1
@<TRIPOS>SUBSTRUCTURE
     1 RES1        1 GROUP             0 ****  ****    0  
@<TRIPOS>MOLECULE
LIGAND_00442
    65    69     1     0     0
SMALL
USER_CHARGES
****
Generated from the CSD

@<TRIPOS>ATOM
     1 C1      -0.4278  -3.4234 -14.9911   C.ar      1 RES1   0.0000
     2 H2      -1.5097  -3.4068 -14.9158   H         1 RES1   0.0000
     3 C3       2.3298  -3.4280 -15.1556   C.ar      1 RES1   0.0000
     4 H4       3.4132  -3.4198 -15.2151   H         1 RES1   0.0000
     5 C5       0.2585  -4.6051 -14.7273   C.ar      1 RES1   0.0000
     6 C6       0.2422  -2.2650 -15.3426   C.ar      1 RES1   0.0000
     7 H7      -0.3021  -1.3511 -15.5558   H         1 RES1   0.0000
     8 C8       1.6065  -2.2985 -15.4130   C.ar      1 RES1   0.0000
     9 C9       1.6473  -4.5824 -14.8187   C.ar      1 RES1   0.0000
    10 H10      2.2123  -5.4874 -14.6264   H         1 RES1   0.0000
    11 C11     -0.4533  -5.8668 -14.3417   C.2       1 RES1   0.0000
    12 F12      2.2724  -1.1614 -15.7528   F         1 RES1   0.0000
    13 N13     -1.2999  -7.9174 -14.1965   N.am      1 RES1   0.0000
    14 C14     -1.6525  -9.3642 -14.3935   C.3       1 RES1   0.0000
    15 H15     -1.1797  -9.7050 -15.3134   H         1 RES1   0.0000
    16 C16     -2.2977  -7.7936 -11.8799   C.3       1 RES1   0.0000
    17 H17     -2.8377  -7.0472 -11.3012   H         1 RES1   0.0000
    18 H18     -2.9996  -8.5753 -12.1630   H         1 RES1   0.0000
    19 H19     -1.5377  -8.2357 -11.2391   H         1 RES1   0.0000
    20 C20     -1.1594  -5.9688 -13.1688   C.2       1 RES1   0.0000
    21 C21     -1.4160  -4.9157 -12.1531   C.ar      1 RES1   0.0000
    22 O22     -0.0857  -7.5282 -16.0585   O.2       1 RES1   0.0000
    23 C23     -0.5519  -7.1283 -14.9997   C.2       1 RES1   0.0000
    24 N24     -1.6872  -7.1893 -13.0645   N.pl3     1 RES1   0.0000
    25 C25     -1.4387 -11.6810 -13.4375   C.3       1 RES1   0.0000
    26 H26     -1.0810 -12.2495 -12.5803   H         1 RES1   0.0000
    27 H27     -0.9511 -12.0423 -14.3417   H         1 RES1   0.0000
    28 C28     -3.4836 -11.0569 -14.6948   C.3       1 RES1   0.0000
    29 H29     -3.0581 -11.4120 -15.6323   H         1 RES1   0.0000
    30 H30     -4.5649 -11.1843 -14.7157   H         1 RES1   0.0000
    31 C31     -3.1579  -9.5805 -14.5263   C.3       1 RES1   0.0000
    32 H32     -3.5208  -9.0343 -15.3957   H         1 RES1   0.0000
    33 H33     -3.6518  -9.2069 -13.6306   H         1 RES1   0.0000
    34 C34     -1.1120 -10.2109 -13.2405   C.3       1 RES1   0.0000
    35 H35     -1.5602  -9.8693 -12.3086   H         1 RES1   0.0000
    36 H36     -0.0308 -10.0912 -13.1885   H         1 RES1   0.0000
    37 N37     -2.9181 -11.8544 -13.5671   N.4       1 RES1   1.0000
    38 H38     -3.3590 -11.5563 -12.7028   H         1 RES1   0.0000
    39 H39     -3.1191 -12.8362 -13.7282   H         1 RES1   0.0000
    40 N40     -0.8662  -5.0993 -10.9425   N.ar      1 RES1   0.0000
    41 C41     -2.3708  -2.8985 -11.3940   C.ar      1 RES1   0.0000
    42 H42     -2.9709  -2.0147 -11.5841   H         1 RES1   0.0000
    43 N43     -0.5809  -4.3597  -8.7908   N.pl3     1 RES1   0.0000
    44 H44     -0.4853  -5.3188  -8.4572   H         1 RES1   0.0000
    45 C45     -2.1938  -3.7996 -12.4246   C.ar      1 RES1   0.0000
    46 H46     -2.6438  -3.6432 -13.3994   H         1 RES1   0.0000
    47 C47     -1.1127  -4.1667 -10.0084   C.ar      1 RES1   0.0000
    48 N48     -1.8442  -3.0549 -10.1726   N.ar      1 RES1   0.0000
    49 C49     -0.1884  -3.2786  -7.8870   C.3       1 RES1   0.0000
    50 H50     -0.8704  -2.4276  -8.0384   H         1 RES1   0.0000
    51 C51      1.2320  -2.8082  -8.1313   C.ar      1 RES1   0.0000
    52 C52     -0.3547  -3.7860  -6.4594   C.3       1 RES1   0.0000
    53 H53     -0.1061  -3.0074  -5.7414   H         1 RES1   0.0000
    54 H54     -1.3802  -4.1003  -6.2768   H         1 RES1   0.0000
    55 H55      0.2980  -4.6368  -6.2756   H         1 RES1   0.0000
    56 C56      3.8458  -1.9580  -8.5851   C.ar      1 RES1   0.0000
    57 H57      4.8635  -1.6266  -8.7624   H         1 RES1   0.0000
    58 C58      2.1916  -3.6877  -8.6116   C.ar      1 RES1   0.0000
    59 H59      1.9206  -4.7190  -8.8123   H         1 RES1   0.0000
    60 C60      1.6049  -1.4950  -7.8797   C.ar      1 RES1   0.0000
    61 H61      0.8723  -0.7894  -7.5021   H         1 RES1   0.0000
    62 C62      2.9044  -1.0737  -8.1060   C.ar      1 RES1   0.0000
    63 H63      3.1814  -0.0442  -7.9054   H         1 RES1   0.0000
    64 C64      3.4902  -3.2646  -8.8380   C.ar      1 RES1   0.0000
    65 H65      4.2290  -3.9637  -9.2155   H         1 RES1   0.0000
@<TRIPOS>BOND
     1     1     5   ar
     2     1     6   ar
     3     1     2    1
     4     3     8   ar
     5     3     9   ar
     6     3     4    1
     7     5     9   ar
     8     5    11    1
     9     6     8   ar
    10     6     7    1
    11     8    12    1
    12     9    10    1
    13    11    20    2
    14    11    23    1
    15    13    14    1
    16    13    23   am
    17    13    24    1
    18    14    31    1
    19    14    34    1
    20    14    15    1
    21    16    24    1
    22    16    17    1
    23    16    18    1
    24    16    19    1
    25    20    21    1
    26    20    24    1
    27    21    40   ar
    28    21    45   ar
    29    22    23    2
    30    25    34    1
    31    25    37    1
    32    25    26    1
    33    25    27    1
    34    28    31    1
    35    28    37    1
    36    28    29    1
    37    28    30    1
    38    31    32    1
    39    31    33    1
    40    34    35    1
    41    34    36    1
    42    37    38    1
    43    37    39    1
    44    40    47   ar
    45    41    45   ar
    46    41    48   ar
    47    41    42    1
    48    43    47    1
    49    43    49    1
    50    43    44    1
    51    45    46    1
    52    47    48   ar
    53    49    51    1
    54    49    52    1
    55    49    50    1
    56    51    58   ar
    57    51    60   ar
    58    52    53    1
    59    52    54    1
    60    52    55    1
    61    56    62   ar
    62    56    64   ar
    63    56    57    1
    64    58    64   ar
    65    58    59    1
    66    60    62   ar
    67    60    61    1
    68    62    63    1
    69    64    65    1
@<TRIPOS>SUBSTRUCTURE
     1 RES1        1 GROUP             0 ****  ****    0  
@<TRIPOS>MOLECULE
LIGAND_00443
    65    69     1     0     0
SMALL
USER_CHARGES
****
Generated from the CSD

@<TRIPOS>ATOM
     1 C1      -0.7667  -3.8368 -15.9793   C.ar      1 RES1   0.0000
     2 H2      -1.6387  -4.2807 -16.4472   H         1 RES1   0.0000
     3 C3       1.4310  -2.6666 -14.7824   C.ar      1 RES1   0.0000
     4 H4       2.2889  -2.1970 -14.3126   H         1 RES1   0.0000
     5 C5      -0.1379  -4.5040 -14.9322   C.ar      1 RES1   0.0000
     6 C6      -0.3057  -2.6139 -16.4337   C.ar      1 RES1   0.0000
     7 H7      -0.7967  -2.1060 -17.2570   H         1 RES1   0.0000
     8 C8       0.7819  -2.0597 -15.8195   C.ar      1 RES1   0.0000
     9 C9       0.9685  -3.8948 -14.3468   C.ar      1 RES1   0.0000
    10 H10      1.4859  -4.3907 -13.5334   H         1 RES1   0.0000
    11 C11     -0.6279  -5.8274 -14.4267   C.2       1 RES1   0.0000
    12 F12      1.2375  -0.8545 -16.2575   F         1 RES1   0.0000
    13 N13     -1.1808  -7.9592 -14.1231   N.am      1 RES1   0.0000
    14 C14     -1.3686  -9.4452 -14.2378   C.3       1 RES1   0.0000
    15 H15     -0.9778  -9.7616 -15.2037   H         1 RES1   0.0000
    16 C16     -1.8817  -7.8671 -11.6986   C.3       1 RES1   0.0000
    17 H17     -2.4339  -7.1704 -11.0713   H         1 RES1   0.0000
    18 H18     -2.5087  -8.7400 -11.8682   H         1 RES1   0.0000
    19 H19     -0.9960  -8.1863 -11.1534   H         1 RES1   0.0000
    20 C20     -1.1594  -5.9688 -13.1688   C.2       1 RES1   0.0000
    21 C21     -1.4160  -4.9157 -12.1531   C.ar      1 RES1   0.0000
    22 O22     -0.2744  -7.4979 -16.1375   O.2       1 RES1   0.0000
    23 C23     -0.6484  -7.1166 -15.0361   C.2       1 RES1   0.0000
    24 N24     -1.5097  -7.2399 -12.9673   N.pl3     1 RES1   0.0000
    25 C25     -0.7410 -11.6780 -13.2642   C.3       1 RES1   0.0000
    26 H26     -0.2073 -12.1635 -12.4486   H         1 RES1   0.0000
    27 H27     -0.3310 -12.0122 -14.2161   H         1 RES1   0.0000
    28 C28     -2.9926 -11.3613 -14.2553   C.3       1 RES1   0.0000
    29 H29     -2.6487 -11.6984 -15.2321   H         1 RES1   0.0000
    30 H30     -4.0426 -11.6216 -14.1304   H         1 RES1   0.0000
    31 C31     -2.8387  -9.8505 -14.1659   C.3       1 RES1   0.0000
    32 H32     -3.3764  -9.3882 -14.9924   H         1 RES1   0.0000
    33 H33     -3.2576  -9.5051 -13.2219   H         1 RES1   0.0000
    34 C34     -0.5817 -10.1722 -13.1465   C.3       1 RES1   0.0000
    35 H35     -0.9470  -9.8515 -12.1720   H         1 RES1   0.0000
    36 H36      0.4731  -9.9182 -13.2404   H         1 RES1   0.0000
    37 N37     -2.1907 -12.0374 -13.1935   N.4       1 RES1   1.0000
    38 H38     -2.5518 -11.7616 -12.2859   H         1 RES1   0.0000
    39 H39     -2.2839 -13.0421 -13.3037   H         1 RES1   0.0000
    40 N40     -2.6992  -4.6898 -11.8302   N.ar      1 RES1   0.0000
    41 C41     -0.7580  -3.2243 -10.6488   C.ar      1 RES1   0.0000
    42 H42      0.0265  -2.6440 -10.1743   H         1 RES1   0.0000
    43 N43     -4.2293  -3.4806 -10.6241   N.pl3     1 RES1   0.0000
    44 H44     -4.4449  -3.1822  -9.6728   H         1 RES1   0.0000
    45 C45     -0.3913  -4.1856 -11.5689   C.ar      1 RES1   0.0000
    46 H46      0.6486  -4.3597 -11.8246   H         1 RES1   0.0000
    47 C47     -2.9451  -3.7222 -10.9322   C.ar      1 RES1   0.0000
    48 N48     -2.0280  -2.9671 -10.3100   N.ar      1 RES1   0.0000
    49 C49     -5.3454  -3.6790 -11.5485   C.3       1 RES1   0.0000
    50 H50     -5.1091  -4.5273 -12.2094   H         1 RES1   0.0000
    51 C51     -5.6091  -2.4573 -12.4067   C.ar      1 RES1   0.0000
    52 C52     -6.5739  -4.0366 -10.7202   C.3       1 RES1   0.0000
    53 H53     -7.4307  -4.2276 -11.3628   H         1 RES1   0.0000
    54 H54     -6.3928  -4.9279 -10.1231   H         1 RES1   0.0000
    55 H55     -6.8319  -3.2234 -10.0450   H         1 RES1   0.0000
    56 C56     -6.0884  -0.2035 -13.9722   C.ar      1 RES1   0.0000
    57 H57     -6.2744   0.6742 -14.5824   H         1 RES1   0.0000
    58 C58     -5.3301  -1.1862 -11.9257   C.ar      1 RES1   0.0000
    59 H59     -4.9208  -1.0688 -10.9278   H         1 RES1   0.0000
    60 C60     -6.1351  -2.5802 -13.6854   C.ar      1 RES1   0.0000
    61 H61     -6.3630  -3.5639 -14.0824   H         1 RES1   0.0000
    62 C62     -6.3725  -1.4591 -14.4626   C.ar      1 RES1   0.0000
    63 H63     -6.7833  -1.5704 -15.4605   H         1 RES1   0.0000
    64 C64     -5.5673  -0.0663 -12.7045   C.ar      1 RES1   0.0000
    65 H65     -5.3423   0.9210 -12.3152   H         1 RES1   0.0000
@<TRIPOS>BOND
     1     1     5   ar
     2     1     6   ar
     3     1     2    1
     4     3     8   ar
     5     3     9   ar
     6     3     4    1
     7     5     9   ar
     8     5    11    1
     9     6     8   ar
    10     6     7    1
    11     8    12    1
    12     9    10    1
    13    11    20    2
    14    11    23    1
    15    13    14    1
    16    13    23   am
    17    13    24    1
    18    14    31    1
    19    14    34    1
    20    14    15    1
    21    16    24    1
    22    16    17    1
    23    16    18    1
    24    16    19    1
    25    20    21    1
    26    20    24    1
    27    21    40   ar
    28    21    45   ar
    29    22    23    2
    30    25    34    1
    31    25    37    1
    32    25    26    1
    33    25    27    1
    34    28    31    1
    35    28    37    1
    36    28    29    1
    37    28    30    1
    38    31    32    1
    39    31    33    1
    40    34    35    1
    41    34    36    1
    42    37    38    1
    43    37    39    1
    44    40    47   ar
    45    41    45   ar
    46    41    48   ar
    47    41    42    1
    48    43    47    1
    49    43    49    1
    50    43    44    1
    51    45    46    1
    52    47    48   ar
    53    49    51    1
    54    49    52    1
    55    49    50    1
    56    51    58   ar
    57    51    60   ar
    58    52    53    1
    59    52    54    1
    60    52    55    1
    61    56    62   ar
    62    56    64   ar
    63    56    57    1
    64    58    64   ar
    65    58    59    1
    66    60    62   ar
    67    60    61    1
    68    62    63    1
    69    64    65    1
@<TRIPOS>SUBSTRUCTURE
     1 RES1        1 GROUP             0 ****  ****    0  
@<TRIPOS>MOLECULE
LIGAND_00444
    65    69     1     0     0
SMALL
USER_CHARGES
****
Generated from the CSD

@<TRIPOS>ATOM
     1 C1      -0.6994  -4.2982 -11.5265   C.ar      1 RES1   0.0000
     2 H2      -0.1323  -5.0965 -11.0599   H         1 RES1   0.0000
     3 C3      -2.1079  -2.2360 -12.7076   C.ar      1 RES1   0.0000
     4 H4      -2.6530  -1.4188 -13.1683   H         1 RES1   0.0000
     5 C5      -1.2881  -4.5128 -12.7691   C.ar      1 RES1   0.0000
     6 C6      -0.8173  -3.0836 -10.8742   C.ar      1 RES1   0.0000
     7 H7      -0.3629  -2.9290  -9.9013   H         1 RES1   0.0000
     8 C8      -1.5180  -2.0824 -11.4854   C.ar      1 RES1   0.0000
     9 C9      -1.9941  -3.4590 -13.3427   C.ar      1 RES1   0.0000
    10 H10     -2.4708  -3.5947 -14.3068   H         1 RES1   0.0000
    11 C11     -1.1659  -5.8217 -13.4895   C.2       1 RES1   0.0000
    12 F12     -1.6334  -0.8834 -10.8522   F         1 RES1   0.0000
    13 N13     -1.2406  -7.9410 -14.1570   N.am      1 RES1   0.0000
    14 C14     -1.5106  -9.4109 -14.3092   C.3       1 RES1   0.0000
    15 H15     -1.1035  -9.7318 -15.2669   H         1 RES1   0.0000
    16 C16     -0.3252  -7.6743 -16.4955   C.3       1 RES1   0.0000
    17 H17     -0.1251  -6.8489 -17.1756   H         1 RES1   0.0000
    18 H18      0.5447  -8.3278 -16.4910   H         1 RES1   0.0000
    19 H19     -1.1708  -8.2375 -16.8846   H         1 RES1   0.0000
    20 C20     -0.5870  -5.9122 -14.7311   C.2       1 RES1   0.0000
    21 C21      0.0604  -4.8376 -15.5265   C.ar      1 RES1   0.0000
    22 O22     -2.1510  -7.5590 -12.1278   O.2       1 RES1   0.0000
    23 C23     -1.5821  -7.1365 -13.1259   C.2       1 RES1   0.0000
    24 N24     -0.6101  -7.1788 -15.1485   N.pl3     1 RES1   0.0000
    25 C25     -1.0510 -11.6946 -13.3604   C.3       1 RES1   0.0000
    26 H26     -0.5770 -12.2260 -12.5364   H         1 RES1   0.0000
    27 H27     -0.6263 -12.0348 -14.3037   H         1 RES1   0.0000
    28 C28     -3.2420 -11.2269 -14.4246   C.3       1 RES1   0.0000
    29 H29     -2.8826 -11.5654 -15.3952   H         1 RES1   0.0000
    30 H30     -4.3094 -11.4269 -14.3428   H         1 RES1   0.0000
    31 C31     -3.0035  -9.7297 -14.2984   C.3       1 RES1   0.0000
    32 H32     -3.4823  -9.2211 -15.1339   H         1 RES1   0.0000
    33 H33     -3.4361  -9.3778 -13.3630   H         1 RES1   0.0000
    34 C34     -0.8084 -10.2033 -13.2059   C.3       1 RES1   0.0000
    35 H35     -1.1900  -9.8799 -12.2386   H         1 RES1   0.0000
    36 H36      0.2622 -10.0106 -13.2566   H         1 RES1   0.0000
    37 N37     -2.5208 -11.9689 -13.3491   N.4       1 RES1   1.0000
    38 H38     -2.8984 -11.6892 -12.4495   H         1 RES1   0.0000
    39 H39     -2.6684 -12.9641 -13.4833   H         1 RES1   0.0000
    40 N40      1.3774  -4.6591 -15.3388   N.ar      1 RES1   0.0000
    41 C41      0.0602  -3.0675 -17.0834   C.ar      1 RES1   0.0000
    42 H42     -0.4737  -2.4365 -17.7862   H         1 RES1   0.0000
    43 N43      3.2815  -3.4798 -15.8307   N.pl3     1 RES1   0.0000
    44 H44      3.7518  -4.0704 -15.1448   H         1 RES1   0.0000
    45 C45     -0.6510  -4.0422 -16.4129   C.ar      1 RES1   0.0000
    46 H46     -1.7159  -4.1777 -16.5702   H         1 RES1   0.0000
    47 C47      1.9685  -3.6735 -16.0332   C.ar      1 RES1   0.0000
    48 N48      1.3719  -2.8567 -16.9137   N.ar      1 RES1   0.0000
    49 C49      4.0663  -2.4336 -16.4857   C.3       1 RES1   0.0000
    50 H50      3.9437  -2.5311 -17.5755   H         1 RES1   0.0000
    51 C51      5.5432  -2.5269 -16.1558   C.ar      1 RES1   0.0000
    52 C52      3.4967  -1.0882 -16.0516   C.3       1 RES1   0.0000
    53 H53      4.2834  -0.3398 -15.9826   H         1 RES1   0.0000
    54 H54      2.7538  -0.7340 -16.7632   H         1 RES1   0.0000
    55 H55      3.0202  -1.1692 -15.0768   H         1 RES1   0.0000
    56 C56      8.2535  -2.6967 -15.5347   C.ar      1 RES1   0.0000
    57 H57      9.3090  -2.7635 -15.2929   H         1 RES1   0.0000
    58 C58      5.9781  -2.4286 -14.8420   C.ar      1 RES1   0.0000
    59 H59      5.2539  -2.2834 -14.0472   H         1 RES1   0.0000
    60 C60      6.4900  -2.7094 -17.1544   C.ar      1 RES1   0.0000
    61 H61      6.1739  -2.7873 -18.1893   H         1 RES1   0.0000
    62 C62      7.8368  -2.7940 -16.8441   C.ar      1 RES1   0.0000
    63 H63      8.5655  -2.9373 -17.6349   H         1 RES1   0.0000
    64 C64      7.3251  -2.5141 -14.5335   C.ar      1 RES1   0.0000
    65 H65      7.6497  -2.4372 -13.5012   H         1 RES1   0.0000
@<TRIPOS>BOND
     1     1     5   ar
     2     1     6   ar
     3     1     2    1
     4     3     8   ar
     5     3     9   ar
     6     3     4    1
     7     5     9   ar
     8     5    11    1
     9     6     8   ar
    10     6     7    1
    11     8    12    1
    12     9    10    1
    13    11    20    2
    14    11    23    1
    15    13    14    1
    16    13    23   am
    17    13    24    1
    18    14    31    1
    19    14    34    1
    20    14    15    1
    21    16    24    1
    22    16    17    1
    23    16    18    1
    24    16    19    1
    25    20    21    1
    26    20    24    1
    27    21    40   ar
    28    21    45   ar
    29    22    23    2
    30    25    34    1
    31    25    37    1
    32    25    26    1
    33    25    27    1
    34    28    31    1
    35    28    37    1
    36    28    29    1
    37    28    30    1
    38    31    32    1
    39    31    33    1
    40    34    35    1
    41    34    36    1
    42    37    38    1
    43    37    39    1
    44    40    47   ar
    45    41    45   ar
    46    41    48   ar
    47    41    42    1
    48    43    47    1
    49    43    49    1
    50    43    44    1
    51    45    46    1
    52    47    48   ar
    53    49    51    1
    54    49    52    1
    55    49    50    1
    56    51    58   ar
    57    51    60   ar
    58    52    53    1
    59    52    54    1
    60    52    55    1
    61    56    62   ar
    62    56    64   ar
    63    56    57    1
    64    58    64   ar
    65    58    59    1
    66    60    62   ar
    67    60    61    1
    68    62    63    1
    69    64    65    1
@<TRIPOS>SUBSTRUCTURE
     1 RES1        1 GROUP             0 ****  ****    0  
@<TRIPOS>MOLECULE
LIGAND_00445
    65    69     1     0     0
SMALL
USER_CHARGES
****
Generated from the CSD

@<TRIPOS>ATOM
     1 C1      -2.7631  -4.3551 -16.3843   C.ar      1 RES1   0.0000
     2 H2      -3.3869  -5.2039 -16.6428   H         1 RES1   0.0000
     3 C3      -1.2124  -2.1668 -15.7219   C.ar      1 RES1   0.0000
     4 H4      -0.6125  -1.3008 -15.4624   H         1 RES1   0.0000
     5 C5      -1.8085  -4.4880 -15.3803   C.ar      1 RES1   0.0000
     6 C6      -2.9380  -3.1589 -17.0575   C.ar      1 RES1   0.0000
     7 H7      -3.6782  -3.0677 -17.8453   H         1 RES1   0.0000
     8 C8      -2.1575  -2.0941 -16.7051   C.ar      1 RES1   0.0000
     9 C9      -1.0383  -3.3718 -15.0661   C.ar      1 RES1   0.0000
    10 H10     -0.2809  -3.4429 -14.2938   H         1 RES1   0.0000
    11 C11     -1.6101  -5.7761 -14.6397   C.2       1 RES1   0.0000
    12 F12     -2.3278  -0.9130 -17.3593   F         1 RES1   0.0000
    13 N13     -1.2406  -7.9410 -14.1570   N.am      1 RES1   0.0000
    14 C14     -1.5106  -9.4109 -14.3092   C.3       1 RES1   0.0000
    15 H15     -1.2170  -9.7059 -15.3155   H         1 RES1   0.0000
    16 C16     -0.8997  -7.6987 -11.7768   C.3       1 RES1   0.0000
    17 H17     -1.4821  -8.4148 -11.2007   H         1 RES1   0.0000
    18 H18      0.0445  -8.1682 -12.0450   H         1 RES1   0.0000
    19 H19     -0.6847  -6.8442 -11.1386   H         1 RES1   0.0000
    20 C20     -1.7513  -5.9390 -13.3057   C.2       1 RES1   0.0000
    21 C21     -2.0254  -4.9138 -12.2663   C.ar      1 RES1   0.0000
    22 O22     -1.1751  -7.3947 -16.3880   O.2       1 RES1   0.0000
    23 C23     -1.3018  -7.0544 -15.2191   C.2       1 RES1   0.0000
    24 N24     -1.6302  -7.2794 -12.9734   N.3       1 RES1   0.0000
    25 C25     -0.9161 -11.7077 -13.4736   C.3       1 RES1   0.0000
    26 H26     -0.3415 -12.2498 -12.7240   H         1 RES1   0.0000
    27 H27     -0.6031 -12.0220 -14.4682   H         1 RES1   0.0000
    28 C28     -3.2233 -11.2474 -14.2590   C.3       1 RES1   0.0000
    29 H29     -2.9784 -11.5605 -15.2728   H         1 RES1   0.0000
    30 H30     -4.2710 -11.4637 -14.0554   H         1 RES1   0.0000
    31 C31     -2.9880  -9.7502 -14.1282   C.3       1 RES1   0.0000
    32 H32     -3.5685  -9.2306 -14.8891   H         1 RES1   0.0000
    33 H33     -3.3099  -9.4240 -13.1404   H         1 RES1   0.0000
    34 C34     -0.6732 -10.2168 -13.3153   C.3       1 RES1   0.0000
    35 H35     -0.9404  -9.9191 -12.3025   H         1 RES1   0.0000
    36 H36      0.3815 -10.0085 -13.4886   H         1 RES1   0.0000
    37 N37     -2.3709 -12.0022 -13.2939   N.4       1 RES1   1.0000
    38 H38     -2.6417 -11.7467 -12.3496   H         1 RES1   0.0000
    39 H39     -2.5226 -12.9962 -13.4320   H         1 RES1   0.0000
    40 N40     -0.9580  -4.3300 -11.6994   N.ar      1 RES1   0.0000
    41 C41     -3.4397  -3.6190 -10.8951   C.ar      1 RES1   0.0000
    42 H42     -4.4387  -3.3344 -10.5815   H         1 RES1   0.0000
    43 N43     -0.1258  -2.8511 -10.1571   N.pl3     1 RES1   0.0000
    44 H44      0.8005  -3.1748 -10.4353   H         1 RES1   0.0000
    45 C45     -3.3148  -4.5762 -11.8818   C.ar      1 RES1   0.0000
    46 H46     -4.1838  -5.0436 -12.3329   H         1 RES1   0.0000
    47 C47     -1.1929  -3.4204 -10.7400   C.ar      1 RES1   0.0000
    48 N48     -2.3968  -3.0232 -10.3026   N.ar      1 RES1   0.0000
    49 C49     -0.2096  -1.8406  -9.1028   C.3       1 RES1   0.0000
    50 H50     -1.1531  -1.2854  -9.2209   H         1 RES1   0.0000
    51 C51      0.9406  -0.8543  -9.1550   C.ar      1 RES1   0.0000
    52 C52     -0.2397  -2.5699  -7.7648   C.3       1 RES1   0.0000
    53 H53     -0.1352  -1.8681  -6.9400   H         1 RES1   0.0000
    54 H54     -1.1777  -3.1060  -7.6366   H         1 RES1   0.0000
    55 H55      0.5734  -3.2901  -7.7014   H         1 RES1   0.0000
    56 C56      3.0624   0.9487  -9.2416   C.ar      1 RES1   0.0000
    57 H57      3.8890   1.6506  -9.2761   H         1 RES1   0.0000
    58 C58      2.1192  -1.1112  -8.4695   C.ar      1 RES1   0.0000
    59 H59      2.2153  -2.0250  -7.8926   H         1 RES1   0.0000
    60 C60      0.8419   0.3233  -9.8832   C.ar      1 RES1   0.0000
    61 H61     -0.0706   0.5467 -10.4259   H         1 RES1   0.0000
    62 C62      1.8976   1.2184  -9.9257   C.ar      1 RES1   0.0000
    63 H63      1.8064   2.1346 -10.4995   H         1 RES1   0.0000
    64 C64      3.1740  -0.2154  -8.5137   C.ar      1 RES1   0.0000
    65 H65      4.0900  -0.4311  -7.9739   H         1 RES1   0.0000
@<TRIPOS>BOND
     1     1     5   ar
     2     1     6   ar
     3     1     2    1
     4     3     8   ar
     5     3     9   ar
     6     3     4    1
     7     5     9   ar
     8     5    11    1
     9     6     8   ar
    10     6     7    1
    11     8    12    1
    12     9    10    1
    13    11    20    2
    14    11    23    1
    15    13    14    1
    16    13    23   am
    17    13    24    1
    18    14    31    1
    19    14    34    1
    20    14    15    1
    21    16    24    1
    22    16    17    1
    23    16    18    1
    24    16    19    1
    25    20    21    1
    26    20    24    1
    27    21    40   ar
    28    21    45   ar
    29    22    23    2
    30    25    34    1
    31    25    37    1
    32    25    26    1
    33    25    27    1
    34    28    31    1
    35    28    37    1
    36    28    29    1
    37    28    30    1
    38    31    32    1
    39    31    33    1
    40    34    35    1
    41    34    36    1
    42    37    38    1
    43    37    39    1
    44    40    47   ar
    45    41    45   ar
    46    41    48   ar
    47    41    42    1
    48    43    47    1
    49    43    49    1
    50    43    44    1
    51    45    46    1
    52    47    48   ar
    53    49    51    1
    54    49    52    1
    55    49    50    1
    56    51    58   ar
    57    51    60   ar
    58    52    53    1
    59    52    54    1
    60    52    55    1
    61    56    62   ar
    62    56    64   ar
    63    56    57    1
    64    58    64   ar
    65    58    59    1
    66    60    62   ar
    67    60    61    1
    68    62    63    1
    69    64    65    1
@<TRIPOS>SUBSTRUCTURE
     1 RES1        1 GROUP             0 ****  ****    0  
@<TRIPOS>MOLECULE
LIGAND_00446
    65    69     1     0     0
SMALL
USER_CHARGES
****
Generated from the CSD

@<TRIPOS>ATOM
     1 C1      -2.7631  -4.3551 -16.3843   C.ar      1 RES1   0.0000
     2 H2      -3.3869  -5.2039 -16.6428   H         1 RES1   0.0000
     3 C3      -1.2124  -2.1668 -15.7219   C.ar      1 RES1   0.0000
     4 H4      -0.6125  -1.3008 -15.4624   H         1 RES1   0.0000
     5 C5      -1.8085  -4.4880 -15.3803   C.ar      1 RES1   0.0000
     6 C6      -2.9380  -3.1589 -17.0575   C.ar      1 RES1   0.0000
     7 H7      -3.6782  -3.0677 -17.8453   H         1 RES1   0.0000
     8 C8      -2.1575  -2.0941 -16.7051   C.ar      1 RES1   0.0000
     9 C9      -1.0383  -3.3718 -15.0661   C.ar      1 RES1   0.0000
    10 H10     -0.2809  -3.4429 -14.2938   H         1 RES1   0.0000
    11 C11     -1.6101  -5.7761 -14.6397   C.2       1 RES1   0.0000
    12 F12     -2.3278  -0.9130 -17.3593   F         1 RES1   0.0000
    13 N13     -1.2406  -7.9410 -14.1570   N.am      1 RES1   0.0000
    14 C14     -1.5106  -9.4109 -14.3092   C.3       1 RES1   0.0000
    15 H15     -1.2170  -9.7059 -15.3155   H         1 RES1   0.0000
    16 C16     -0.8997  -7.6987 -11.7768   C.3       1 RES1   0.0000
    17 H17     -1.4821  -8.4148 -11.2007   H         1 RES1   0.0000
    18 H18      0.0445  -8.1682 -12.0450   H         1 RES1   0.0000
    19 H19     -0.6847  -6.8442 -11.1386   H         1 RES1   0.0000
    20 C20     -1.7513  -5.9390 -13.3057   C.2       1 RES1   0.0000
    21 C21     -2.0254  -4.9138 -12.2663   C.ar      1 RES1   0.0000
    22 O22     -1.1751  -7.3947 -16.3880   O.2       1 RES1   0.0000
    23 C23     -1.3018  -7.0544 -15.2191   C.2       1 RES1   0.0000
    24 N24     -1.6302  -7.2794 -12.9734   N.3       1 RES1   0.0000
    25 C25     -0.9160 -11.7077 -13.4736   C.3       1 RES1   0.0000
    26 H26     -0.3415 -12.2498 -12.7240   H         1 RES1   0.0000
    27 H27     -0.6031 -12.0220 -14.4682   H         1 RES1   0.0000
    28 C28     -3.2233 -11.2474 -14.2589   C.3       1 RES1   0.0000
    29 H29     -2.9784 -11.5605 -15.2728   H         1 RES1   0.0000
    30 H30     -4.2710 -11.4637 -14.0554   H         1 RES1   0.0000
    31 C31     -2.9880  -9.7502 -14.1282   C.3       1 RES1   0.0000
    32 H32     -3.5685  -9.2306 -14.8891   H         1 RES1   0.0000
    33 H33     -3.3099  -9.4240 -13.1403   H         1 RES1   0.0000
    34 C34     -0.6732 -10.2168 -13.3154   C.3       1 RES1   0.0000
    35 H35     -0.9404  -9.9191 -12.3025   H         1 RES1   0.0000
    36 H36      0.3815 -10.0085 -13.4887   H         1 RES1   0.0000
    37 N37     -2.3709 -12.0022 -13.2939   N.4       1 RES1   1.0000
    38 H38     -2.6417 -11.7467 -12.3496   H         1 RES1   0.0000
    39 H39     -2.5225 -12.9962 -13.4320   H         1 RES1   0.0000
    40 N40     -0.9580  -4.3300 -11.6994   N.ar      1 RES1   0.0000
    41 C41     -3.4397  -3.6190 -10.8951   C.ar      1 RES1   0.0000
    42 H42     -4.4387  -3.3344 -10.5815   H         1 RES1   0.0000
    43 N43     -0.1258  -2.8511 -10.1571   N.pl3     1 RES1   0.0000
    44 H44     -0.2921  -2.1230  -9.4624   H         1 RES1   0.0000
    45 C45     -3.3148  -4.5762 -11.8818   C.ar      1 RES1   0.0000
    46 H46     -4.1838  -5.0436 -12.3329   H         1 RES1   0.0000
    47 C47     -1.1929  -3.4204 -10.7400   C.ar      1 RES1   0.0000
    48 N48     -2.3968  -3.0232 -10.3026   N.ar      1 RES1   0.0000
    49 C49      1.2608  -3.1649 -10.5012   C.3       1 RES1   0.0000
    50 H50      1.3050  -4.1981 -10.8790   H         1 RES1   0.0000
    51 C51      2.1926  -3.0458  -9.3112   C.ar      1 RES1   0.0000
    52 C52      1.6847  -2.2203 -11.6198   C.3       1 RES1   0.0000
    53 H53      2.7545  -2.2946 -11.8034   H         1 RES1   0.0000
    54 H54      1.1648  -2.4580 -12.5455   H         1 RES1   0.0000
    55 H55      1.4569  -1.1890 -11.3587   H         1 RES1   0.0000
    56 C56      3.9071  -2.8121  -7.1280   C.ar      1 RES1   0.0000
    57 H57      4.5742  -2.7210  -6.2772   H         1 RES1   0.0000
    58 C58      2.8029  -1.8358  -9.0139   C.ar      1 RES1   0.0000
    59 H59      2.6104  -0.9706  -9.6396   H         1 RES1   0.0000
    60 C60      2.4579  -4.1384  -8.4970   C.ar      1 RES1   0.0000
    61 H61      1.9936  -5.0954  -8.7108   H         1 RES1   0.0000
    62 C62      3.3100  -4.0206  -7.4119   C.ar      1 RES1   0.0000
    63 H63      3.5076  -4.8829  -6.7839   H         1 RES1   0.0000
    64 C64      3.6541  -1.7197  -7.9281   C.ar      1 RES1   0.0000
    65 H65      4.1225  -0.7664  -7.7073   H         1 RES1   0.0000
@<TRIPOS>BOND
     1     1     5   ar
     2     1     6   ar
     3     1     2    1
     4     3     8   ar
     5     3     9   ar
     6     3     4    1
     7     5     9   ar
     8     5    11    1
     9     6     8   ar
    10     6     7    1
    11     8    12    1
    12     9    10    1
    13    11    20    2
    14    11    23    1
    15    13    14    1
    16    13    23   am
    17    13    24    1
    18    14    31    1
    19    14    34    1
    20    14    15    1
    21    16    24    1
    22    16    17    1
    23    16    18    1
    24    16    19    1
    25    20    21    1
    26    20    24    1
    27    21    40   ar
    28    21    45   ar
    29    22    23    2
    30    25    34    1
    31    25    37    1
    32    25    26    1
    33    25    27    1
    34    28    31    1
    35    28    37    1
    36    28    29    1
    37    28    30    1
    38    31    32    1
    39    31    33    1
    40    34    35    1
    41    34    36    1
    42    37    38    1
    43    37    39    1
    44    40    47   ar
    45    41    45   ar
    46    41    48   ar
    47    41    42    1
    48    43    47    1
    49    43    49    1
    50    43    44    1
    51    45    46    1
    52    47    48   ar
    53    49    51    1
    54    49    52    1
    55    49    50    1
    56    51    58   ar
    57    51    60   ar
    58    52    53    1
    59    52    54    1
    60    52    55    1
    61    56    62   ar
    62    56    64   ar
    63    56    57    1
    64    58    64   ar
    65    58    59    1
    66    60    62   ar
    67    60    61    1
    68    62    63    1
    69    64    65    1
@<TRIPOS>SUBSTRUCTURE
     1 RES1        1 GROUP             0 ****  ****    0  
@<TRIPOS>MOLECULE
LIGAND_00447
    65    69     1     0     0
SMALL
USER_CHARGES
****
Generated from the CSD

@<TRIPOS>ATOM
     1 C1      -3.0248  -3.8117 -15.3691   C.ar      1 RES1   0.0000
     2 H2      -3.8579  -4.2218 -14.8086   H         1 RES1   0.0000
     3 C3      -0.9094  -2.7260 -16.7756   C.ar      1 RES1   0.0000
     4 H4      -0.0813  -2.2894 -17.3241   H         1 RES1   0.0000
     5 C5      -1.8085  -4.4880 -15.3803   C.ar      1 RES1   0.0000
     6 C6      -3.1929  -2.6215 -16.0545   C.ar      1 RES1   0.0000
     7 H7      -4.1477  -2.1065 -16.0477   H         1 RES1   0.0000
     8 C8      -2.1271  -2.1087 -16.7387   C.ar      1 RES1   0.0000
     9 C9      -0.7584  -3.9218 -16.0977   C.ar      1 RES1   0.0000
    10 H10      0.2005  -4.4262 -16.1329   H         1 RES1   0.0000
    11 C11     -1.6101  -5.7761 -14.6397   C.2       1 RES1   0.0000
    12 F12     -2.2837  -0.9357 -17.4105   F         1 RES1   0.0000
    13 N13     -1.2406  -7.9410 -14.1570   N.am      1 RES1   0.0000
    14 C14     -1.5106  -9.4109 -14.3092   C.3       1 RES1   0.0000
    15 H15     -1.2170  -9.7059 -15.3155   H         1 RES1   0.0000
    16 C16     -0.8997  -7.6987 -11.7768   C.3       1 RES1   0.0000
    17 H17     -1.4821  -8.4148 -11.2007   H         1 RES1   0.0000
    18 H18      0.0445  -8.1682 -12.0450   H         1 RES1   0.0000
    19 H19     -0.6847  -6.8442 -11.1386   H         1 RES1   0.0000
    20 C20     -1.7513  -5.9390 -13.3057   C.2       1 RES1   0.0000
    21 C21     -2.0254  -4.9138 -12.2663   C.ar      1 RES1   0.0000
    22 O22     -1.1751  -7.3947 -16.3880   O.2       1 RES1   0.0000
    23 C23     -1.3018  -7.0544 -15.2191   C.2       1 RES1   0.0000
    24 N24     -1.6302  -7.2794 -12.9734   N.3       1 RES1   0.0000
    25 C25     -0.9160 -11.7077 -13.4736   C.3       1 RES1   0.0000
    26 H26     -0.3415 -12.2498 -12.7240   H         1 RES1   0.0000
    27 H27     -0.6031 -12.0220 -14.4682   H         1 RES1   0.0000
    28 C28     -3.2233 -11.2474 -14.2589   C.3       1 RES1   0.0000
    29 H29     -2.9784 -11.5605 -15.2728   H         1 RES1   0.0000
    30 H30     -4.2710 -11.4637 -14.0554   H         1 RES1   0.0000
    31 C31     -2.9880  -9.7502 -14.1282   C.3       1 RES1   0.0000
    32 H32     -3.5685  -9.2306 -14.8891   H         1 RES1   0.0000
    33 H33     -3.3099  -9.4240 -13.1403   H         1 RES1   0.0000
    34 C34     -0.6732 -10.2168 -13.3154   C.3       1 RES1   0.0000
    35 H35     -0.9404  -9.9191 -12.3025   H         1 RES1   0.0000
    36 H36      0.3815 -10.0085 -13.4887   H         1 RES1   0.0000
    37 N37     -2.3709 -12.0022 -13.2939   N.4       1 RES1   1.0000
    38 H38     -2.6417 -11.7467 -12.3496   H         1 RES1   0.0000
    39 H39     -2.5225 -12.9962 -13.4320   H         1 RES1   0.0000
    40 N40     -0.9580  -4.3300 -11.6994   N.ar      1 RES1   0.0000
    41 C41     -3.4397  -3.6190 -10.8951   C.ar      1 RES1   0.0000
    42 H42     -4.4387  -3.3344 -10.5815   H         1 RES1   0.0000
    43 N43     -0.1258  -2.8511 -10.1571   N.pl3     1 RES1   0.0000
    44 H44     -0.2921  -2.1230  -9.4624   H         1 RES1   0.0000
    45 C45     -3.3148  -4.5762 -11.8818   C.ar      1 RES1   0.0000
    46 H46     -4.1838  -5.0436 -12.3329   H         1 RES1   0.0000
    47 C47     -1.1929  -3.4204 -10.7400   C.ar      1 RES1   0.0000
    48 N48     -2.3968  -3.0232 -10.3026   N.ar      1 RES1   0.0000
    49 C49      1.2608  -3.1649 -10.5012   C.3       1 RES1   0.0000
    50 H50      1.3050  -4.1981 -10.8790   H         1 RES1   0.0000
    51 C51      2.1926  -3.0458  -9.3112   C.ar      1 RES1   0.0000
    52 C52      1.6847  -2.2203 -11.6198   C.3       1 RES1   0.0000
    53 H53      2.7545  -2.2946 -11.8034   H         1 RES1   0.0000
    54 H54      1.1648  -2.4580 -12.5455   H         1 RES1   0.0000
    55 H55      1.4569  -1.1890 -11.3587   H         1 RES1   0.0000
    56 C56      3.9071  -2.8121  -7.1280   C.ar      1 RES1   0.0000
    57 H57      4.5742  -2.7210  -6.2772   H         1 RES1   0.0000
    58 C58      2.8029  -1.8358  -9.0139   C.ar      1 RES1   0.0000
    59 H59      2.6104  -0.9706  -9.6396   H         1 RES1   0.0000
    60 C60      2.4579  -4.1384  -8.4970   C.ar      1 RES1   0.0000
    61 H61      1.9936  -5.0954  -8.7108   H         1 RES1   0.0000
    62 C62      3.3100  -4.0206  -7.4119   C.ar      1 RES1   0.0000
    63 H63      3.5076  -4.8829  -6.7839   H         1 RES1   0.0000
    64 C64      3.6541  -1.7197  -7.9281   C.ar      1 RES1   0.0000
    65 H65      4.1225  -0.7664  -7.7073   H         1 RES1   0.0000
@<TRIPOS>BOND
     1     1     5   ar
     2     1     6   ar
     3     1     2    1
     4     3     8   ar
     5     3     9   ar
     6     3     4    1
     7     5     9   ar
     8     5    11    1
     9     6     8   ar
    10     6     7    1
    11     8    12    1
    12     9    10    1
    13    11    20    2
    14    11    23    1
    15    13    14    1
    16    13    23   am
    17    13    24    1
    18    14    31    1
    19    14    34    1
    20    14    15    1
    21    16    24    1
    22    16    17    1
    23    16    18    1
    24    16    19    1
    25    20    21    1
    26    20    24    1
    27    21    40   ar
    28    21    45   ar
    29    22    23    2
    30    25    34    1
    31    25    37    1
    32    25    26    1
    33    25    27    1
    34    28    31    1
    35    28    37    1
    36    28    29    1
    37    28    30    1
    38    31    32    1
    39    31    33    1
    40    34    35    1
    41    34    36    1
    42    37    38    1
    43    37    39    1
    44    40    47   ar
    45    41    45   ar
    46    41    48   ar
    47    41    42    1
    48    43    47    1
    49    43    49    1
    50    43    44    1
    51    45    46    1
    52    47    48   ar
    53    49    51    1
    54    49    52    1
    55    49    50    1
    56    51    58   ar
    57    51    60   ar
    58    52    53    1
    59    52    54    1
    60    52    55    1
    61    56    62   ar
    62    56    64   ar
    63    56    57    1
    64    58    64   ar
    65    58    59    1
    66    60    62   ar
    67    60    61    1
    68    62    63    1
    69    64    65    1
@<TRIPOS>SUBSTRUCTURE
     1 RES1        1 GROUP             0 ****  ****    0  
@<TRIPOS>MOLECULE
LIGAND_00448
    65    69     1     0     0
SMALL
USER_CHARGES
****
Generated from the CSD

@<TRIPOS>ATOM
     1 C1      -2.7631  -4.3551 -16.3843   C.ar      1 RES1   0.0000
     2 H2      -3.3869  -5.2039 -16.6428   H         1 RES1   0.0000
     3 C3      -1.2124  -2.1668 -15.7219   C.ar      1 RES1   0.0000
     4 H4      -0.6125  -1.3008 -15.4624   H         1 RES1   0.0000
     5 C5      -1.8085  -4.4880 -15.3803   C.ar      1 RES1   0.0000
     6 C6      -2.9380  -3.1589 -17.0575   C.ar      1 RES1   0.0000
     7 H7      -3.6782  -3.0677 -17.8453   H         1 RES1   0.0000
     8 C8      -2.1575  -2.0941 -16.7051   C.ar      1 RES1   0.0000
     9 C9      -1.0383  -3.3718 -15.0661   C.ar      1 RES1   0.0000
    10 H10     -0.2809  -3.4429 -14.2938   H         1 RES1   0.0000
    11 C11     -1.6101  -5.7761 -14.6397   C.2       1 RES1   0.0000
    12 F12     -2.3278  -0.9130 -17.3593   F         1 RES1   0.0000
    13 N13     -1.2406  -7.9410 -14.1570   N.am      1 RES1   0.0000
    14 C14     -1.5106  -9.4109 -14.3092   C.3       1 RES1   0.0000
    15 H15     -1.2170  -9.7059 -15.3155   H         1 RES1   0.0000
    16 C16     -0.8997  -7.6987 -11.7768   C.3       1 RES1   0.0000
    17 H17     -1.4821  -8.4148 -11.2007   H         1 RES1   0.0000
    18 H18      0.0445  -8.1682 -12.0450   H         1 RES1   0.0000
    19 H19     -0.6847  -6.8442 -11.1386   H         1 RES1   0.0000
    20 C20     -1.7513  -5.9390 -13.3057   C.2       1 RES1   0.0000
    21 C21     -2.0254  -4.9138 -12.2663   C.ar      1 RES1   0.0000
    22 O22     -1.1751  -7.3947 -16.3880   O.2       1 RES1   0.0000
    23 C23     -1.3018  -7.0544 -15.2191   C.2       1 RES1   0.0000
    24 N24     -1.6302  -7.2794 -12.9734   N.3       1 RES1   0.0000
    25 C25     -0.9161 -11.7077 -13.4736   C.3       1 RES1   0.0000
    26 H26     -0.3415 -12.2498 -12.7240   H         1 RES1   0.0000
    27 H27     -0.6031 -12.0220 -14.4682   H         1 RES1   0.0000
    28 C28     -3.2233 -11.2474 -14.2590   C.3       1 RES1   0.0000
    29 H29     -2.9784 -11.5605 -15.2728   H         1 RES1   0.0000
    30 H30     -4.2710 -11.4637 -14.0554   H         1 RES1   0.0000
    31 C31     -2.9880  -9.7502 -14.1282   C.3       1 RES1   0.0000
    32 H32     -3.5685  -9.2306 -14.8891   H         1 RES1   0.0000
    33 H33     -3.3099  -9.4240 -13.1404   H         1 RES1   0.0000
    34 C34     -0.6732 -10.2168 -13.3153   C.3       1 RES1   0.0000
    35 H35     -0.9404  -9.9191 -12.3025   H         1 RES1   0.0000
    36 H36      0.3815 -10.0085 -13.4886   H         1 RES1   0.0000
    37 N37     -2.3709 -12.0022 -13.2939   N.4       1 RES1   1.0000
    38 H38     -2.6417 -11.7467 -12.3496   H         1 RES1   0.0000
    39 H39     -2.5226 -12.9962 -13.4320   H         1 RES1   0.0000
    40 N40     -3.3153  -4.6658 -11.9899   N.ar      1 RES1   0.0000
    41 C41     -1.3914  -3.2906 -10.6788   C.ar      1 RES1   0.0000
    42 H42     -0.6140  -2.7468 -10.1523   H         1 RES1   0.0000
    43 N43     -4.8658  -3.4583 -10.8082   N.pl3     1 RES1   0.0000
    44 H44     -5.5747  -3.9477 -11.3543   H         1 RES1   0.0000
    45 C45     -1.0092  -4.2301 -11.6151   C.ar      1 RES1   0.0000
    46 H46      0.0362  -4.4223 -11.8328   H         1 RES1   0.0000
    47 C47     -3.5758  -3.7226 -11.0704   C.ar      1 RES1   0.0000
    48 N48     -2.6681  -3.0123 -10.3849   N.ar      1 RES1   0.0000
    49 C49     -5.3174  -2.4667  -9.8324   C.3       1 RES1   0.0000
    50 H50     -4.5491  -2.3667  -9.0500   H         1 RES1   0.0000
    51 C51     -6.6270  -2.8568  -9.1757   C.ar      1 RES1   0.0000
    52 C52     -5.4491  -1.1320 -10.5567   C.3       1 RES1   0.0000
    53 H53     -5.9383  -0.3953  -9.9229   H         1 RES1   0.0000
    54 H54     -4.4716  -0.7439 -10.8349   H         1 RES1   0.0000
    55 H55     -6.0398  -1.2438 -11.4635   H         1 RES1   0.0000
    56 C56     -9.0412  -3.5665  -7.9805   C.ar      1 RES1   0.0000
    57 H57     -9.9813  -3.8436  -7.5153   H         1 RES1   0.0000
    58 C58     -7.8369  -2.4828  -9.7424   C.ar      1 RES1   0.0000
    59 H59     -7.8427  -1.9066 -10.6618   H         1 RES1   0.0000
    60 C60     -6.6469  -3.5909  -7.9978   C.ar      1 RES1   0.0000
    61 H61     -5.7133  -3.8932  -7.5351   H         1 RES1   0.0000
    62 C62     -7.8477  -3.9432  -7.4050   C.ar      1 RES1   0.0000
    63 H63     -7.8479  -4.5178  -6.4847   H         1 RES1   0.0000
    64 C64     -9.0366  -2.8366  -9.1487   C.ar      1 RES1   0.0000
    65 H65     -9.9747  -2.5383  -9.6048   H         1 RES1   0.0000
@<TRIPOS>BOND
     1     1     5   ar
     2     1     6   ar
     3     1     2    1
     4     3     8   ar
     5     3     9   ar
     6     3     4    1
     7     5     9   ar
     8     5    11    1
     9     6     8   ar
    10     6     7    1
    11     8    12    1
    12     9    10    1
    13    11    20    2
    14    11    23    1
    15    13    14    1
    16    13    23   am
    17    13    24    1
    18    14    31    1
    19    14    34    1
    20    14    15    1
    21    16    24    1
    22    16    17    1
    23    16    18    1
    24    16    19    1
    25    20    21    1
    26    20    24    1
    27    21    40   ar
    28    21    45   ar
    29    22    23    2
    30    25    34    1
    31    25    37    1
    32    25    26    1
    33    25    27    1
    34    28    31    1
    35    28    37    1
    36    28    29    1
    37    28    30    1
    38    31    32    1
    39    31    33    1
    40    34    35    1
    41    34    36    1
    42    37    38    1
    43    37    39    1
    44    40    47   ar
    45    41    45   ar
    46    41    48   ar
    47    41    42    1
    48    43    47    1
    49    43    49    1
    50    43    44    1
    51    45    46    1
    52    47    48   ar
    53    49    51    1
    54    49    52    1
    55    49    50    1
    56    51    58   ar
    57    51    60   ar
    58    52    53    1
    59    52    54    1
    60    52    55    1
    61    56    62   ar
    62    56    64   ar
    63    56    57    1
    64    58    64   ar
    65    58    59    1
    66    60    62   ar
    67    60    61    1
    68    62    63    1
    69    64    65    1
@<TRIPOS>SUBSTRUCTURE
     1 RES1        1 GROUP             0 ****  ****    0  
@<TRIPOS>MOLECULE
LIGAND_00449
    65    69     1     0     0
SMALL
USER_CHARGES
****
Generated from the CSD

@<TRIPOS>ATOM
     1 C1      -2.7631  -4.3551 -16.3843   C.ar      1 RES1   0.0000
     2 H2      -3.3869  -5.2039 -16.6428   H         1 RES1   0.0000
     3 C3      -1.2124  -2.1668 -15.7219   C.ar      1 RES1   0.0000
     4 H4      -0.6125  -1.3008 -15.4624   H         1 RES1   0.0000
     5 C5      -1.8085  -4.4880 -15.3803   C.ar      1 RES1   0.0000
     6 C6      -2.9380  -3.1589 -17.0575   C.ar      1 RES1   0.0000
     7 H7      -3.6782  -3.0677 -17.8453   H         1 RES1   0.0000
     8 C8      -2.1575  -2.0941 -16.7051   C.ar      1 RES1   0.0000
     9 C9      -1.0383  -3.3718 -15.0661   C.ar      1 RES1   0.0000
    10 H10     -0.2809  -3.4429 -14.2938   H         1 RES1   0.0000
    11 C11     -1.6101  -5.7761 -14.6397   C.2       1 RES1   0.0000
    12 F12     -2.3278  -0.9130 -17.3593   F         1 RES1   0.0000
    13 N13     -1.2406  -7.9410 -14.1570   N.am      1 RES1   0.0000
    14 C14     -1.5106  -9.4109 -14.3092   C.3       1 RES1   0.0000
    15 H15     -1.2170  -9.7059 -15.3155   H         1 RES1   0.0000
    16 C16     -0.8997  -7.6987 -11.7768   C.3       1 RES1   0.0000
    17 H17     -1.4821  -8.4148 -11.2007   H         1 RES1   0.0000
    18 H18      0.0445  -8.1682 -12.0450   H         1 RES1   0.0000
    19 H19     -0.6847  -6.8442 -11.1386   H         1 RES1   0.0000
    20 C20     -1.7513  -5.9390 -13.3057   C.2       1 RES1   0.0000
    21 C21     -2.0254  -4.9138 -12.2663   C.ar      1 RES1   0.0000
    22 O22     -1.1751  -7.3947 -16.3880   O.2       1 RES1   0.0000
    23 C23     -1.3018  -7.0544 -15.2191   C.2       1 RES1   0.0000
    24 N24     -1.6302  -7.2794 -12.9734   N.3       1 RES1   0.0000
    25 C25     -0.9160 -11.7077 -13.4736   C.3       1 RES1   0.0000
    26 H26     -0.3415 -12.2498 -12.7240   H         1 RES1   0.0000
    27 H27     -0.6031 -12.0220 -14.4682   H         1 RES1   0.0000
    28 C28     -3.2233 -11.2474 -14.2589   C.3       1 RES1   0.0000
    29 H29     -2.9784 -11.5605 -15.2728   H         1 RES1   0.0000
    30 H30     -4.2710 -11.4637 -14.0554   H         1 RES1   0.0000
    31 C31     -2.9880  -9.7502 -14.1282   C.3       1 RES1   0.0000
    32 H32     -3.5685  -9.2306 -14.8891   H         1 RES1   0.0000
    33 H33     -3.3099  -9.4240 -13.1403   H         1 RES1   0.0000
    34 C34     -0.6732 -10.2168 -13.3154   C.3       1 RES1   0.0000
    35 H35     -0.9404  -9.9191 -12.3025   H         1 RES1   0.0000
    36 H36      0.3815 -10.0085 -13.4887   H         1 RES1   0.0000
    37 N37     -2.3709 -12.0022 -13.2939   N.4       1 RES1   1.0000
    38 H38     -2.6417 -11.7467 -12.3496   H         1 RES1   0.0000
    39 H39     -2.5225 -12.9962 -13.4320   H         1 RES1   0.0000
    40 N40     -3.3153  -4.6658 -11.9899   N.ar      1 RES1   0.0000
    41 C41     -1.3914  -3.2906 -10.6788   C.ar      1 RES1   0.0000
    42 H42     -0.6140  -2.7468 -10.1523   H         1 RES1   0.0000
    43 N43     -4.8658  -3.4583 -10.8082   N.pl3     1 RES1   0.0000
    44 H44     -5.0757  -2.7796 -10.0764   H         1 RES1   0.0000
    45 C45     -1.0092  -4.2301 -11.6151   C.ar      1 RES1   0.0000
    46 H46      0.0362  -4.4223 -11.8328   H         1 RES1   0.0000
    47 C47     -3.5758  -3.7226 -11.0704   C.ar      1 RES1   0.0000
    48 N48     -2.6681  -3.0123 -10.3849   N.ar      1 RES1   0.0000
    49 C49     -5.9892  -4.1290 -11.4623   C.3       1 RES1   0.0000
    50 H50     -5.6696  -4.4562 -12.4638   H         1 RES1   0.0000
    51 C51     -7.1952  -3.2226 -11.6126   C.ar      1 RES1   0.0000
    52 C52     -6.3359  -5.3622 -10.6363   C.3       1 RES1   0.0000
    53 H53     -7.2665  -5.8084 -10.9806   H         1 RES1   0.0000
    54 H54     -5.5518  -6.1126 -10.7125   H         1 RES1   0.0000
    55 H55     -6.4538  -5.1009  -9.5868   H         1 RES1   0.0000
    56 C56     -9.4162  -1.5617 -11.8747   C.ar      1 RES1   0.0000
    57 H57    -10.2808  -0.9143 -11.9766   H         1 RES1   0.0000
    58 C58     -8.1489  -3.1483 -10.6076   C.ar      1 RES1   0.0000
    59 H59     -8.0283  -3.7446  -9.7092   H         1 RES1   0.0000
    60 C60     -7.3744  -2.4520 -12.7531   C.ar      1 RES1   0.0000
    61 H61     -6.6428  -2.4948 -13.5531   H         1 RES1   0.0000
    62 C62     -8.4787  -1.6266 -12.8819   C.ar      1 RES1   0.0000
    63 H63     -8.6053  -1.0294 -13.7787   H         1 RES1   0.0000
    64 C64     -9.2521  -2.3219 -10.7377   C.ar      1 RES1   0.0000
    65 H65     -9.9884  -2.2732  -9.9425   H         1 RES1   0.0000
@<TRIPOS>BOND
     1     1     5   ar
     2     1     6   ar
     3     1     2    1
     4     3     8   ar
     5     3     9   ar
     6     3     4    1
     7     5     9   ar
     8     5    11    1
     9     6     8   ar
    10     6     7    1
    11     8    12    1
    12     9    10    1
    13    11    20    2
    14    11    23    1
    15    13    14    1
    16    13    23   am
    17    13    24    1
    18    14    31    1
    19    14    34    1
    20    14    15    1
    21    16    24    1
    22    16    17    1
    23    16    18    1
    24    16    19    1
    25    20    21    1
    26    20    24    1
    27    21    40   ar
    28    21    45   ar
    29    22    23    2
    30    25    34    1
    31    25    37    1
    32    25    26    1
    33    25    27    1
    34    28    31    1
    35    28    37    1
    36    28    29    1
    37    28    30    1
    38    31    32    1
    39    31    33    1
    40    34    35    1
    41    34    36    1
    42    37    38    1
    43    37    39    1
    44    40    47   ar
    45    41    45   ar
    46    41    48   ar
    47    41    42    1
    48    43    47    1
    49    43    49    1
    50    43    44    1
    51    45    46    1
    52    47    48   ar
    53    49    51    1
    54    49    52    1
    55    49    50    1
    56    51    58   ar
    57    51    60   ar
    58    52    53    1
    59    52    54    1
    60    52    55    1
    61    56    62   ar
    62    56    64   ar
    63    56    57    1
    64    58    64   ar
    65    58    59    1
    66    60    62   ar
    67    60    61    1
    68    62    63    1
    69    64    65    1
@<TRIPOS>SUBSTRUCTURE
     1 RES1        1 GROUP             0 ****  ****    0  
@<TRIPOS>MOLECULE
LIGAND_00450
    65    69     1     0     0
SMALL
USER_CHARGES
****
Generated from the CSD

@<TRIPOS>ATOM
     1 C1      -3.0248  -3.8117 -15.3691   C.ar      1 RES1   0.0000
     2 H2      -3.8579  -4.2218 -14.8086   H         1 RES1   0.0000
     3 C3      -0.9094  -2.7260 -16.7756   C.ar      1 RES1   0.0000
     4 H4      -0.0813  -2.2894 -17.3241   H         1 RES1   0.0000
     5 C5      -1.8085  -4.4880 -15.3803   C.ar      1 RES1   0.0000
     6 C6      -3.1929  -2.6215 -16.0545   C.ar      1 RES1   0.0000
     7 H7      -4.1477  -2.1065 -16.0477   H         1 RES1   0.0000
     8 C8      -2.1271  -2.1087 -16.7387   C.ar      1 RES1   0.0000
     9 C9      -0.7584  -3.9218 -16.0977   C.ar      1 RES1   0.0000
    10 H10      0.2005  -4.4262 -16.1329   H         1 RES1   0.0000
    11 C11     -1.6101  -5.7761 -14.6397   C.2       1 RES1   0.0000
    12 F12     -2.2837  -0.9357 -17.4105   F         1 RES1   0.0000
    13 N13     -1.2406  -7.9410 -14.1570   N.am      1 RES1   0.0000
    14 C14     -1.5106  -9.4109 -14.3092   C.3       1 RES1   0.0000
    15 H15     -1.2170  -9.7059 -15.3155   H         1 RES1   0.0000
    16 C16     -0.8997  -7.6987 -11.7768   C.3       1 RES1   0.0000
    17 H17     -1.4821  -8.4148 -11.2007   H         1 RES1   0.0000
    18 H18      0.0445  -8.1682 -12.0450   H         1 RES1   0.0000
    19 H19     -0.6847  -6.8442 -11.1386   H         1 RES1   0.0000
    20 C20     -1.7513  -5.9390 -13.3057   C.2       1 RES1   0.0000
    21 C21     -2.0254  -4.9138 -12.2663   C.ar      1 RES1   0.0000
    22 O22     -1.1751  -7.3947 -16.3880   O.2       1 RES1   0.0000
    23 C23     -1.3018  -7.0544 -15.2191   C.2       1 RES1   0.0000
    24 N24     -1.6302  -7.2794 -12.9734   N.3       1 RES1   0.0000
    25 C25     -0.9160 -11.7077 -13.4736   C.3       1 RES1   0.0000
    26 H26     -0.3415 -12.2498 -12.7240   H         1 RES1   0.0000
    27 H27     -0.6031 -12.0220 -14.4682   H         1 RES1   0.0000
    28 C28     -3.2233 -11.2474 -14.2589   C.3       1 RES1   0.0000
    29 H29     -2.9784 -11.5605 -15.2728   H         1 RES1   0.0000
    30 H30     -4.2710 -11.4637 -14.0554   H         1 RES1   0.0000
    31 C31     -2.9880  -9.7502 -14.1282   C.3       1 RES1   0.0000
    32 H32     -3.5685  -9.2306 -14.8891   H         1 RES1   0.0000
    33 H33     -3.3099  -9.4240 -13.1403   H         1 RES1   0.0000
    34 C34     -0.6732 -10.2168 -13.3154   C.3       1 RES1   0.0000
    35 H35     -0.9404  -9.9191 -12.3025   H         1 RES1   0.0000
    36 H36      0.3815 -10.0085 -13.4887   H         1 RES1   0.0000
    37 N37     -2.3709 -12.0022 -13.2939   N.4       1 RES1   1.0000
    38 H38     -2.6417 -11.7467 -12.3496   H         1 RES1   0.0000
    39 H39     -2.5225 -12.9962 -13.4320   H         1 RES1   0.0000
    40 N40     -3.3153  -4.6658 -11.9899   N.ar      1 RES1   0.0000
    41 C41     -1.3914  -3.2906 -10.6788   C.ar      1 RES1   0.0000
    42 H42     -0.6140  -2.7468 -10.1523   H         1 RES1   0.0000
    43 N43     -4.8658  -3.4583 -10.8082   N.pl3     1 RES1   0.0000
    44 H44     -5.0757  -2.7796 -10.0764   H         1 RES1   0.0000
    45 C45     -1.0092  -4.2301 -11.6151   C.ar      1 RES1   0.0000
    46 H46      0.0362  -4.4223 -11.8328   H         1 RES1   0.0000
    47 C47     -3.5758  -3.7226 -11.0704   C.ar      1 RES1   0.0000
    48 N48     -2.6681  -3.0123 -10.3849   N.ar      1 RES1   0.0000
    49 C49     -5.9892  -4.1290 -11.4623   C.3       1 RES1   0.0000
    50 H50     -5.6696  -4.4562 -12.4638   H         1 RES1   0.0000
    51 C51     -7.1952  -3.2226 -11.6126   C.ar      1 RES1   0.0000
    52 C52     -6.3359  -5.3622 -10.6363   C.3       1 RES1   0.0000
    53 H53     -7.2665  -5.8084 -10.9806   H         1 RES1   0.0000
    54 H54     -5.5518  -6.1126 -10.7125   H         1 RES1   0.0000
    55 H55     -6.4538  -5.1009  -9.5868   H         1 RES1   0.0000
    56 C56     -9.4162  -1.5617 -11.8747   C.ar      1 RES1   0.0000
    57 H57    -10.2808  -0.9143 -11.9766   H         1 RES1   0.0000
    58 C58     -8.1489  -3.1483 -10.6076   C.ar      1 RES1   0.0000
    59 H59     -8.0283  -3.7446  -9.7092   H         1 RES1   0.0000
    60 C60     -7.3744  -2.4520 -12.7531   C.ar      1 RES1   0.0000
    61 H61     -6.6428  -2.4948 -13.5531   H         1 RES1   0.0000
    62 C62     -8.4787  -1.6266 -12.8819   C.ar      1 RES1   0.0000
    63 H63     -8.6053  -1.0294 -13.7787   H         1 RES1   0.0000
    64 C64     -9.2521  -2.3219 -10.7377   C.ar      1 RES1   0.0000
    65 H65     -9.9884  -2.2732  -9.9425   H         1 RES1   0.0000
@<TRIPOS>BOND
     1     1     5   ar
     2     1     6   ar
     3     1     2    1
     4     3     8   ar
     5     3     9   ar
     6     3     4    1
     7     5     9   ar
     8     5    11    1
     9     6     8   ar
    10     6     7    1
    11     8    12    1
    12     9    10    1
    13    11    20    2
    14    11    23    1
    15    13    14    1
    16    13    23   am
    17    13    24    1
    18    14    31    1
    19    14    34    1
    20    14    15    1
    21    16    24    1
    22    16    17    1
    23    16    18    1
    24    16    19    1
    25    20    21    1
    26    20    24    1
    27    21    40   ar
    28    21    45   ar
    29    22    23    2
    30    25    34    1
    31    25    37    1
    32    25    26    1
    33    25    27    1
    34    28    31    1
    35    28    37    1
    36    28    29    1
    37    28    30    1
    38    31    32    1
    39    31    33    1
    40    34    35    1
    41    34    36    1
    42    37    38    1
    43    37    39    1
    44    40    47   ar
    45    41    45   ar
    46    41    48   ar
    47    41    42    1
    48    43    47    1
    49    43    49    1
    50    43    44    1
    51    45    46    1
    52    47    48   ar
    53    49    51    1
    54    49    52    1
    55    49    50    1
    56    51    58   ar
    57    51    60   ar
    58    52    53    1
    59    52    54    1
    60    52    55    1
    61    56    62   ar
    62    56    64   ar
    63    56    57    1
    64    58    64   ar
    65    58    59    1
    66    60    62   ar
    67    60    61    1
    68    62    63    1
    69    64    65    1
@<TRIPOS>SUBSTRUCTURE
     1 RES1        1 GROUP             0 ****  ****    0  
@<TRIPOS>MOLECULE
LIGAND_00451
    65    69     1     0     0
SMALL
USER_CHARGES
****
Generated from the CSD

@<TRIPOS>ATOM
     1 C1       0.6733  -3.7890 -13.4935   C.ar      1 RES1   0.0000
     2 H2       0.5923  -3.8282 -14.5745   H         1 RES1   0.0000
     3 C3       0.8641  -3.6454 -10.7413   C.ar      1 RES1   0.0000
     4 H4       0.9368  -3.5779  -9.6609   H         1 RES1   0.0000
     5 C5       0.0988  -4.7987 -12.7272   C.ar      1 RES1   0.0000
     6 C6       1.3424  -2.7306 -12.9047   C.ar      1 RES1   0.0000
     7 H7       1.7954  -1.9532 -13.5108   H         1 RES1   0.0000
     8 C8       1.4174  -2.6864 -11.5410   C.ar      1 RES1   0.0000
     9 C9       0.2100  -4.7049 -11.3428   C.ar      1 RES1   0.0000
    10 H10     -0.2202  -5.4781 -10.7166   H         1 RES1   0.0000
    11 C11     -0.6323  -5.9494 -13.3507   C.2       1 RES1   0.0000
    12 F12      2.0692  -1.6456 -10.9548   F         1 RES1   0.0000
    13 N13     -1.2571  -7.9448 -14.1430   N.am      1 RES1   0.0000
    14 C14     -1.5411  -9.4143 -14.2719   C.3       1 RES1   0.0000
    15 H15     -1.2962  -9.7178 -15.2886   H         1 RES1   0.0000
    16 C16     -2.8423  -7.1873 -15.8516   C.3       1 RES1   0.0000
    17 H17     -2.3935  -6.5418 -16.6037   H         1 RES1   0.0000
    18 H18     -2.7360  -8.2182 -16.1832   H         1 RES1   0.0000
    19 H19     -3.9041  -6.9565 -15.7958   H         1 RES1   0.0000
    20 C20     -1.7295  -5.7802 -14.1304   C.2       1 RES1   0.0000
    21 C21     -2.3761  -4.5089 -14.5456   C.ar      1 RES1   0.0000
    22 O22      0.5567  -7.9764 -12.7179   O.2       1 RES1   0.0000
    23 C23     -0.3106  -7.3541 -13.3168   C.2       1 RES1   0.0000
    24 N24     -2.2016  -6.9911 -14.5507   N.3       1 RES1   0.0000
    25 C25     -0.9198 -11.7083 -13.4484   C.3       1 RES1   0.0000
    26 H26     -0.3136 -12.2483 -12.7225   H         1 RES1   0.0000
    27 H27     -0.6550 -12.0312 -14.4542   H         1 RES1   0.0000
    28 C28     -3.2588 -11.2413 -14.1288   C.3       1 RES1   0.0000
    29 H29     -3.0629 -11.5627 -15.1507   H         1 RES1   0.0000
    30 H30     -4.2970 -11.4506 -13.8752   H         1 RES1   0.0000
    31 C31     -3.0102  -9.7445 -14.0199   C.3       1 RES1   0.0000
    32 H32     -3.6229  -9.2271 -14.7566   H         1 RES1   0.0000
    33 H33     -3.2841  -9.4097 -13.0205   H         1 RES1   0.0000
    34 C34     -0.6624 -10.2177 -13.3123   C.3       1 RES1   0.0000
    35 H35     -0.8807  -9.9115 -12.2903   H         1 RES1   0.0000
    36 H36      0.3841 -10.0161 -13.5360   H         1 RES1   0.0000
    37 N37     -2.3661 -11.9938 -13.1990   N.4       1 RES1   1.0000
    38 H38     -2.5914 -11.7304 -12.2451   H         1 RES1   0.0000
    39 H39     -2.5290 -12.9880 -13.3229   H         1 RES1   0.0000
    40 N40     -2.4174  -4.2560 -15.8631   N.ar      1 RES1   0.0000
    41 C41     -3.4658  -2.4591 -14.1358   C.ar      1 RES1   0.0000
    42 H42     -3.8898  -1.7453 -13.4373   H         1 RES1   0.0000
    43 N43     -2.9994  -2.8334 -17.5649   N.pl3     1 RES1   0.0000
    44 H44     -3.4630  -1.9789 -17.8731   H         1 RES1   0.0000
    45 C45     -2.9034  -3.6126 -13.6274   C.ar      1 RES1   0.0000
    46 H46     -2.8734  -3.8073 -12.5605   H         1 RES1   0.0000
    47 C47     -2.9764  -3.0976 -16.2487   C.ar      1 RES1   0.0000
    48 N48     -3.5160  -2.1714 -15.4429   N.ar      1 RES1   0.0000
    49 C49     -2.4566  -3.7252 -18.5895   C.3       1 RES1   0.0000
    50 H50     -2.5860  -4.7662 -18.2551   H         1 RES1   0.0000
    51 C51     -0.9827  -3.4805 -18.8467   C.ar      1 RES1   0.0000
    52 C52     -3.2717  -3.5189 -19.8608   C.3       1 RES1   0.0000
    53 H53     -2.9300  -4.1843 -20.6509   H         1 RES1   0.0000
    54 H54     -4.3261  -3.7188 -19.6820   H         1 RES1   0.0000
    55 H55     -3.1766  -2.4950 -20.2161   H         1 RES1   0.0000
    56 C56      1.7224  -3.0162 -19.3235   C.ar      1 RES1   0.0000
    57 H57      2.7760  -2.8353 -19.5085   H         1 RES1   0.0000
    58 C58     -0.5416  -2.2405 -19.2860   C.ar      1 RES1   0.0000
    59 H59     -1.2591  -1.4425 -19.4461   H         1 RES1   0.0000
    60 C60     -0.0451  -4.4856 -18.6526   C.ar      1 RES1   0.0000
    61 H61     -0.3665  -5.4640 -18.3112   H         1 RES1   0.0000
    62 C62      1.2992  -4.2532 -18.8896   C.ar      1 RES1   0.0000
    63 H63      2.0208  -5.0481 -18.7329   H         1 RES1   0.0000
    64 C64      0.8030  -2.0098 -19.5218   C.ar      1 RES1   0.0000
    65 H65      1.1328  -1.0343 -19.8634   H         1 RES1   0.0000
@<TRIPOS>BOND
     1     1     5   ar
     2     1     6   ar
     3     1     2    1
     4     3     8   ar
     5     3     9   ar
     6     3     4    1
     7     5     9   ar
     8     5    11    1
     9     6     8   ar
    10     6     7    1
    11     8    12    1
    12     9    10    1
    13    11    20    2
    14    11    23    1
    15    13    14    1
    16    13    23   am
    17    13    24    1
    18    14    31    1
    19    14    34    1
    20    14    15    1
    21    16    24    1
    22    16    17    1
    23    16    18    1
    24    16    19    1
    25    20    21    1
    26    20    24    1
    27    21    40   ar
    28    21    45   ar
    29    22    23    2
    30    25    34    1
    31    25    37    1
    32    25    26    1
    33    25    27    1
    34    28    31    1
    35    28    37    1
    36    28    29    1
    37    28    30    1
    38    31    32    1
    39    31    33    1
    40    34    35    1
    41    34    36    1
    42    37    38    1
    43    37    39    1
    44    40    47   ar
    45    41    45   ar
    46    41    48   ar
    47    41    42    1
    48    43    47    1
    49    43    49    1
    50    43    44    1
    51    45    46    1
    52    47    48   ar
    53    49    51    1
    54    49    52    1
    55    49    50    1
    56    51    58   ar
    57    51    60   ar
    58    52    53    1
    59    52    54    1
    60    52    55    1
    61    56    62   ar
    62    56    64   ar
    63    56    57    1
    64    58    64   ar
    65    58    59    1
    66    60    62   ar
    67    60    61    1
    68    62    63    1
    69    64    65    1
@<TRIPOS>SUBSTRUCTURE
     1 RES1        1 GROUP             0 ****  ****    0  
@<TRIPOS>MOLECULE
LIGAND_00452
    65    69     1     0     0
SMALL
USER_CHARGES
****
Generated from the CSD

@<TRIPOS>ATOM
     1 C1       0.1897  -3.7754 -12.6883   C.ar      1 RES1   0.0000
     2 H2       0.7999  -3.9155 -13.5740   H         1 RES1   0.0000
     3 C3      -1.3729  -3.3747 -10.4457   C.ar      1 RES1   0.0000
     4 H4      -1.9872  -3.2064  -9.5673   H         1 RES1   0.0000
     5 C5      -0.8097  -4.6977 -12.3930   C.ar      1 RES1   0.0000
     6 C6       0.4186  -2.6777 -11.8776   C.ar      1 RES1   0.0000
     7 H7       1.2065  -1.9693 -12.1108   H         1 RES1   0.0000
     8 C8      -0.3727  -2.5057 -10.7770   C.ar      1 RES1   0.0000
     9 C9      -1.5823  -4.4750 -11.2567   C.ar      1 RES1   0.0000
    10 H10     -2.3648  -5.1777 -10.9939   H         1 RES1   0.0000
    11 C11     -1.0720  -5.8895 -13.2638   C.2       1 RES1   0.0000
    12 F12     -0.1569  -1.4254  -9.9781   F         1 RES1   0.0000
    13 N13     -1.1664  -7.9322 -14.1684   N.am      1 RES1   0.0000
    14 C14     -1.3529  -9.4101 -14.3621   C.3       1 RES1   0.0000
    15 H15     -0.8519  -9.6957 -15.2859   H         1 RES1   0.0000
    16 C16     -1.4677  -7.2874 -16.5135   C.3       1 RES1   0.0000
    17 H17     -1.3949  -6.3599 -17.0777   H         1 RES1   0.0000
    18 H18     -0.5465  -7.8470 -16.6619   H         1 RES1   0.0000
    19 H19     -2.2892  -7.8709 -16.9239   H         1 RES1   0.0000
    20 C20     -1.5187  -5.7765 -14.5398   C.2       1 RES1   0.0000
    21 C21     -1.7851  -4.5377 -15.3151   C.ar      1 RES1   0.0000
    22 O22     -0.5012  -7.8640 -11.9605   O.2       1 RES1   0.0000
    23 C23     -0.8551  -7.2859 -12.9798   C.2       1 RES1   0.0000
    24 N24     -1.6869  -7.0142 -15.0927   N.3       1 RES1   0.0000
    25 C25     -0.8677 -11.6861 -13.4075   C.3       1 RES1   0.0000
    26 H26     -0.4403 -12.2090 -12.5532   H         1 RES1   0.0000
    27 H27     -0.3495 -11.9904 -14.3157   H         1 RES1   0.0000
    28 C28     -2.9809 -11.3014 -14.6478   C.3       1 RES1   0.0000
    29 H29     -2.5254 -11.6066 -15.5887   H         1 RES1   0.0000
    30 H30     -4.0407 -11.5515 -14.6596   H         1 RES1   0.0000
    31 C31     -2.8248  -9.7972 -14.4823   C.3       1 RES1   0.0000
    32 H32     -3.2550  -9.2971 -15.3487   H         1 RES1   0.0000
    33 H33     -3.3507  -9.4814 -13.5825   H         1 RES1   0.0000
    34 C34     -0.7096 -10.1881 -13.2135   C.3       1 RES1   0.0000
    35 H35     -1.1862  -9.8989 -12.2780   H         1 RES1   0.0000
    36 H36      0.3512  -9.9456 -13.1706   H         1 RES1   0.0000
    37 N37     -2.3186 -12.0277 -13.5246   N.4       1 RES1   1.0000
    38 H38     -2.7835 -11.7809 -12.6568   H         1 RES1   0.0000
    39 H39     -2.4074 -13.0262 -13.6839   H         1 RES1   0.0000
    40 N40     -3.0605  -4.3081 -15.6646   N.ar      1 RES1   0.0000
    41 C41     -1.1457  -2.5505 -16.4102   C.ar      1 RES1   0.0000
    42 H42     -0.3729  -1.8465 -16.7008   H         1 RES1   0.0000
    43 N43     -4.5819  -2.9846 -16.7564   N.pl3     1 RES1   0.0000
    44 H44     -4.7906  -2.1260 -17.2657   H         1 RES1   0.0000
    45 C45     -0.7740  -3.6600 -15.6778   C.ar      1 RES1   0.0000
    46 H46      0.2601  -3.8378 -15.4015   H         1 RES1   0.0000
    47 C47     -3.3098  -3.2046 -16.3879   C.ar      1 RES1   0.0000
    48 N48     -2.4066  -2.2954 -16.7828   N.ar      1 RES1   0.0000
    49 C49     -5.6976  -3.8682 -16.4185   C.3       1 RES1   0.0000
    50 H50     -5.5013  -4.3236 -15.4354   H         1 RES1   0.0000
    51 C51     -5.8852  -4.9769 -17.4353   C.ar      1 RES1   0.0000
    52 C52     -6.9523  -3.0091 -16.3136   C.3       1 RES1   0.0000
    53 H53     -7.8117  -3.6136 -16.0310   H         1 RES1   0.0000
    54 H54     -6.8264  -2.2288 -15.5660   H         1 RES1   0.0000
    55 H55     -7.1724  -2.5326 -17.2666   H         1 RES1   0.0000
    56 C56     -6.2322  -7.0036 -19.3148   C.ar      1 RES1   0.0000
    57 H57     -6.3666  -7.7931 -20.0468   H         1 RES1   0.0000
    58 C58     -6.1526  -4.6759 -18.7631   C.ar      1 RES1   0.0000
    59 H59     -6.2279  -3.6388 -19.0727   H         1 RES1   0.0000
    60 C60     -5.7970  -6.3116 -17.0642   C.ar      1 RES1   0.0000
    61 H61     -5.5906  -6.5715 -16.0313   H         1 RES1   0.0000
    62 C62     -5.9693  -7.3179 -17.9996   C.ar      1 RES1   0.0000
    63 H63     -5.8969  -8.3568 -17.6953   H         1 RES1   0.0000
    64 C64     -6.3239  -5.6834 -19.6971   C.ar      1 RES1   0.0000
    65 H65     -6.5306  -5.4323 -20.7321   H         1 RES1   0.0000
@<TRIPOS>BOND
     1     1     5   ar
     2     1     6   ar
     3     1     2    1
     4     3     8   ar
     5     3     9   ar
     6     3     4    1
     7     5     9   ar
     8     5    11    1
     9     6     8   ar
    10     6     7    1
    11     8    12    1
    12     9    10    1
    13    11    20    2
    14    11    23    1
    15    13    14    1
    16    13    23   am
    17    13    24    1
    18    14    31    1
    19    14    34    1
    20    14    15    1
    21    16    24    1
    22    16    17    1
    23    16    18    1
    24    16    19    1
    25    20    21    1
    26    20    24    1
    27    21    40   ar
    28    21    45   ar
    29    22    23    2
    30    25    34    1
    31    25    37    1
    32    25    26    1
    33    25    27    1
    34    28    31    1
    35    28    37    1
    36    28    29    1
    37    28    30    1
    38    31    32    1
    39    31    33    1
    40    34    35    1
    41    34    36    1
    42    37    38    1
    43    37    39    1
    44    40    47   ar
    45    41    45   ar
    46    41    48   ar
    47    41    42    1
    48    43    47    1
    49    43    49    1
    50    43    44    1
    51    45    46    1
    52    47    48   ar
    53    49    51    1
    54    49    52    1
    55    49    50    1
    56    51    58   ar
    57    51    60   ar
    58    52    53    1
    59    52    54    1
    60    52    55    1
    61    56    62   ar
    62    56    64   ar
    63    56    57    1
    64    58    64   ar
    65    58    59    1
    66    60    62   ar
    67    60    61    1
    68    62    63    1
    69    64    65    1
@<TRIPOS>SUBSTRUCTURE
     1 RES1        1 GROUP             0 ****  ****    0  
@<TRIPOS>MOLECULE
LIGAND_00453
    65    69     1     0     0
SMALL
USER_CHARGES
****
Generated from the CSD

@<TRIPOS>ATOM
     1 C1      -0.3701  -3.8964 -15.9918   C.ar      1 RES1   0.0000
     2 H2      -1.1642  -4.3349 -16.5863   H         1 RES1   0.0000
     3 C3       1.6297  -2.7392 -14.4773   C.ar      1 RES1   0.0000
     4 H4       2.4102  -2.2746 -13.8839   H         1 RES1   0.0000
     5 C5       0.0599  -4.5461 -14.8386   C.ar      1 RES1   0.0000
     6 C6       0.1911  -2.6974 -16.3942   C.ar      1 RES1   0.0000
     7 H7      -0.1441  -2.2032 -17.2999   H         1 RES1   0.0000
     8 C8       1.1764  -2.1489 -15.6225   C.ar      1 RES1   0.0000
     9 C9       1.0700  -3.9440 -14.0935   C.ar      1 RES1   0.0000
    10 H10      1.4331  -4.4269 -13.1935   H         1 RES1   0.0000
    11 C11     -0.5410  -5.8434 -14.3880   C.2       1 RES1   0.0000
    12 F12      1.7291  -0.9670 -16.0092   F         1 RES1   0.0000
    13 N13     -1.2406  -7.9410 -14.1570   N.am      1 RES1   0.0000
    14 C14     -1.5106  -9.4109 -14.3092   C.3       1 RES1   0.0000
    15 H15     -1.0788  -9.7377 -15.2541   H         1 RES1   0.0000
    16 C16     -2.0882  -7.8386 -11.7803   C.3       1 RES1   0.0000
    17 H17     -2.6364  -7.1178 -11.1772   H         1 RES1   0.0000
    18 H18     -2.7547  -8.6690 -12.0043   H         1 RES1   0.0000
    19 H19     -1.2602  -8.2189 -11.1859   H         1 RES1   0.0000
    20 C20     -1.1594  -5.9688 -13.1688   C.2       1 RES1   0.0000
    21 C21     -1.4160  -4.9157 -12.1531   C.ar      1 RES1   0.0000
    22 O22     -0.1808  -7.5094 -16.1020   O.2       1 RES1   0.0000
    23 C23     -0.6007  -7.1206 -15.0199   C.2       1 RES1   0.0000
    24 N24     -1.5984  -7.2184 -13.0119   N.pl3     1 RES1   0.0000
    25 C25     -1.0832 -11.6911 -13.3372   C.3       1 RES1   0.0000
    26 H26     -0.6331 -12.2196 -12.4981   H         1 RES1   0.0000
    27 H27     -0.6343 -12.0371 -14.2671   H         1 RES1   0.0000
    28 C28     -3.2435 -11.2227 -14.4623   C.3       1 RES1   0.0000
    29 H29     -2.8590 -11.5671 -15.4212   H         1 RES1   0.0000
    30 H30     -4.3132 -11.4194 -14.4082   H         1 RES1   0.0000
    31 C31     -3.0042  -9.7256 -14.3370   C.3       1 RES1   0.0000
    32 H32     -3.4589  -9.2199 -15.1875   H         1 RES1   0.0000
    33 H33     -3.4607  -9.3678 -13.4154   H         1 RES1   0.0000
    34 C34     -0.8406 -10.1997 -13.1835   C.3       1 RES1   0.0000
    35 H35     -1.2471  -9.8704 -12.2284   H         1 RES1   0.0000
    36 H36      0.2316 -10.0101 -13.2064   H         1 RES1   0.0000
    37 N37     -2.5535 -11.9614 -13.3641   N.4       1 RES1   1.0000
    38 H38     -2.9544 -11.6761 -12.4763   H         1 RES1   0.0000
    39 H39     -2.7004 -12.9568 -13.4974   H         1 RES1   0.0000
    40 N40     -0.8662  -5.0993 -10.9425   N.ar      1 RES1   0.0000
    41 C41     -2.3708  -2.8985 -11.3940   C.ar      1 RES1   0.0000
    42 H42     -2.9709  -2.0147 -11.5841   H         1 RES1   0.0000
    43 N43     -0.5809  -4.3597  -8.7908   N.pl3     1 RES1   0.0000
    44 H44     -0.4853  -5.3188  -8.4572   H         1 RES1   0.0000
    45 C45     -2.1938  -3.7996 -12.4246   C.ar      1 RES1   0.0000
    46 H46     -2.6438  -3.6432 -13.3994   H         1 RES1   0.0000
    47 C47     -1.1127  -4.1667 -10.0084   C.ar      1 RES1   0.0000
    48 N48     -1.8442  -3.0549 -10.1726   N.ar      1 RES1   0.0000
    49 C49     -0.1884  -3.2786  -7.8870   C.3       1 RES1   0.0000
    50 H50     -0.8704  -2.4276  -8.0384   H         1 RES1   0.0000
    51 C51      1.2320  -2.8082  -8.1313   C.ar      1 RES1   0.0000
    52 C52     -0.3548  -3.7860  -6.4594   C.3       1 RES1   0.0000
    53 H53     -0.1061  -3.0074  -5.7414   H         1 RES1   0.0000
    54 H54     -1.3803  -4.1003  -6.2768   H         1 RES1   0.0000
    55 H55      0.2980  -4.6368  -6.2756   H         1 RES1   0.0000
    56 C56      3.8471  -1.9581  -8.5770   C.ar      1 RES1   0.0000
    57 H57      4.8655  -1.6270  -8.7514   H         1 RES1   0.0000
    58 C58      2.2967  -3.6883  -8.0015   C.ar      1 RES1   0.0000
    59 H59      2.1083  -4.7198  -7.7226   H         1 RES1   0.0000
    60 C60      1.5000  -1.4932  -8.4861   C.ar      1 RES1   0.0000
    61 H61      0.6838  -0.7863  -8.5919   H         1 RES1   0.0000
    62 C62      2.8004  -1.0722  -8.7077   C.ar      1 RES1   0.0000
    63 H63      2.9948  -0.0415  -8.9851   H         1 RES1   0.0000
    64 C64      3.5961  -3.2657  -8.2242   C.ar      1 RES1   0.0000
    65 H65      4.4181  -3.9662  -8.1205   H         1 RES1   0.0000
@<TRIPOS>BOND
     1     1     5   ar
     2     1     6   ar
     3     1     2    1
     4     3     8   ar
     5     3     9   ar
     6     3     4    1
     7     5     9   ar
     8     5    11    1
     9     6     8   ar
    10     6     7    1
    11     8    12    1
    12     9    10    1
    13    11    20    2
    14    11    23    1
    15    13    14    1
    16    13    23   am
    17    13    24    1
    18    14    31    1
    19    14    34    1
    20    14    15    1
    21    16    24    1
    22    16    17    1
    23    16    18    1
    24    16    19    1
    25    20    21    1
    26    20    24    1
    27    21    40   ar
    28    21    45   ar
    29    22    23    2
    30    25    34    1
    31    25    37    1
    32    25    26    1
    33    25    27    1
    34    28    31    1
    35    28    37    1
    36    28    29    1
    37    28    30    1
    38    31    32    1
    39    31    33    1
    40    34    35    1
    41    34    36    1
    42    37    38    1
    43    37    39    1
    44    40    47   ar
    45    41    45   ar
    46    41    48   ar
    47    41    42    1
    48    43    47    1
    49    43    49    1
    50    43    44    1
    51    45    46    1
    52    47    48   ar
    53    49    51    1
    54    49    52    1
    55    49    50    1
    56    51    58   ar
    57    51    60   ar
    58    52    53    1
    59    52    54    1
    60    52    55    1
    61    56    62   ar
    62    56    64   ar
    63    56    57    1
    64    58    64   ar
    65    58    59    1
    66    60    62   ar
    67    60    61    1
    68    62    63    1
    69    64    65    1
@<TRIPOS>SUBSTRUCTURE
     1 RES1        1 GROUP             0 ****  ****    0  
@<TRIPOS>MOLECULE
LIGAND_00454
    65    69     1     0     0
SMALL
USER_CHARGES
****
Generated from the CSD

@<TRIPOS>ATOM
     1 C1      -0.7027  -3.3903 -14.9781   C.ar      1 RES1   0.0000
     2 H2      -1.7635  -3.4211 -14.7543   H         1 RES1   0.0000
     3 C3       2.0037  -3.2747 -15.5205   C.ar      1 RES1   0.0000
     4 H4       3.0672  -3.2194 -15.7282   H         1 RES1   0.0000
     5 C5       0.0599  -4.5461 -14.8386   C.ar      1 RES1   0.0000
     6 C6      -0.1343  -2.1985 -15.3916   C.ar      1 RES1   0.0000
     7 H7      -0.7388  -1.3050 -15.5067   H         1 RES1   0.0000
     8 C8       1.2073  -2.1727 -15.6497   C.ar      1 RES1   0.0000
     9 C9       1.4207  -4.4628 -15.1196   C.ar      1 RES1   0.0000
    10 H10      2.0424  -5.3462 -15.0278   H         1 RES1   0.0000
    11 C11     -0.5410  -5.8434 -14.3880   C.2       1 RES1   0.0000
    12 F12      1.7741  -1.0026 -16.0515   F         1 RES1   0.0000
    13 N13     -1.2406  -7.9410 -14.1570   N.am      1 RES1   0.0000
    14 C14     -1.5106  -9.4109 -14.3092   C.3       1 RES1   0.0000
    15 H15     -1.0788  -9.7377 -15.2540   H         1 RES1   0.0000
    16 C16     -2.0882  -7.8386 -11.7803   C.3       1 RES1   0.0000
    17 H17     -2.6361  -7.1177 -11.1770   H         1 RES1   0.0000
    18 H18     -2.7550  -8.6688 -12.0043   H         1 RES1   0.0000
    19 H19     -1.2602  -8.2192 -11.1860   H         1 RES1   0.0000
    20 C20     -1.1594  -5.9688 -13.1688   C.2       1 RES1   0.0000
    21 C21     -1.4160  -4.9157 -12.1531   C.ar      1 RES1   0.0000
    22 O22     -0.1808  -7.5094 -16.1020   O.2       1 RES1   0.0000
    23 C23     -0.6007  -7.1206 -15.0199   C.2       1 RES1   0.0000
    24 N24     -1.5984  -7.2184 -13.0119   N.pl3     1 RES1   0.0000
    25 C25     -1.0832 -11.6911 -13.3372   C.3       1 RES1   0.0000
    26 H26     -0.6331 -12.2196 -12.4981   H         1 RES1   0.0000
    27 H27     -0.6343 -12.0371 -14.2671   H         1 RES1   0.0000
    28 C28     -3.2435 -11.2227 -14.4623   C.3       1 RES1   0.0000
    29 H29     -2.8590 -11.5671 -15.4212   H         1 RES1   0.0000
    30 H30     -4.3132 -11.4194 -14.4083   H         1 RES1   0.0000
    31 C31     -3.0042  -9.7256 -14.3371   C.3       1 RES1   0.0000
    32 H32     -3.4589  -9.2199 -15.1876   H         1 RES1   0.0000
    33 H33     -3.4608  -9.3678 -13.4154   H         1 RES1   0.0000
    34 C34     -0.8406 -10.1997 -13.1835   C.3       1 RES1   0.0000
    35 H35     -1.2472  -9.8704 -12.2284   H         1 RES1   0.0000
    36 H36      0.2315 -10.0101 -13.2063   H         1 RES1   0.0000
    37 N37     -2.5535 -11.9614 -13.3641   N.4       1 RES1   1.0000
    38 H38     -2.9545 -11.6761 -12.4764   H         1 RES1   0.0000
    39 H39     -2.7004 -12.9568 -13.4974   H         1 RES1   0.0000
    40 N40     -2.6992  -4.6898 -11.8302   N.ar      1 RES1   0.0000
    41 C41     -0.7580  -3.2243 -10.6488   C.ar      1 RES1   0.0000
    42 H42      0.0265  -2.6440 -10.1743   H         1 RES1   0.0000
    43 N43     -4.2293  -3.4806 -10.6241   N.pl3     1 RES1   0.0000
    44 H44     -4.4449  -3.1822  -9.6728   H         1 RES1   0.0000
    45 C45     -0.3913  -4.1856 -11.5689   C.ar      1 RES1   0.0000
    46 H46      0.6486  -4.3597 -11.8246   H         1 RES1   0.0000
    47 C47     -2.9451  -3.7222 -10.9322   C.ar      1 RES1   0.0000
    48 N48     -2.0280  -2.9671 -10.3100   N.ar      1 RES1   0.0000
    49 C49     -5.3454  -3.6790 -11.5485   C.3       1 RES1   0.0000
    50 H50     -5.1091  -4.5273 -12.2094   H         1 RES1   0.0000
    51 C51     -5.6091  -2.4573 -12.4067   C.ar      1 RES1   0.0000
    52 C52     -6.5739  -4.0366 -10.7202   C.3       1 RES1   0.0000
    53 H53     -7.4307  -4.2276 -11.3628   H         1 RES1   0.0000
    54 H54     -6.3928  -4.9279 -10.1231   H         1 RES1   0.0000
    55 H55     -6.8319  -3.2234 -10.0450   H         1 RES1   0.0000
    56 C56     -6.0963  -0.2042 -13.9708   C.ar      1 RES1   0.0000
    57 H57     -6.2853   0.6734 -14.5801   H         1 RES1   0.0000
    58 C58     -5.9374  -1.2434 -11.8205   C.ar      1 RES1   0.0000
    59 H59     -6.0056  -1.1711 -10.7401   H         1 RES1   0.0000
    60 C60     -5.5313  -2.5241 -13.7911   C.ar      1 RES1   0.0000
    61 H61     -5.2781  -3.4630 -14.2721   H         1 RES1   0.0000
    62 C62     -5.7734  -1.4032 -14.5672   C.ar      1 RES1   0.0000
    63 H63     -5.7083  -1.4701 -15.6481   H         1 RES1   0.0000
    64 C64     -6.1784  -0.1235 -12.5982   C.ar      1 RES1   0.0000
    65 H65     -6.4323   0.8192 -12.1251   H         1 RES1   0.0000
@<TRIPOS>BOND
     1     1     5   ar
     2     1     6   ar
     3     1     2    1
     4     3     8   ar
     5     3     9   ar
     6     3     4    1
     7     5     9   ar
     8     5    11    1
     9     6     8   ar
    10     6     7    1
    11     8    12    1
    12     9    10    1
    13    11    20    2
    14    11    23    1
    15    13    14    1
    16    13    23   am
    17    13    24    1
    18    14    31    1
    19    14    34    1
    20    14    15    1
    21    16    24    1
    22    16    17    1
    23    16    18    1
    24    16    19    1
    25    20    21    1
    26    20    24    1
    27    21    40   ar
    28    21    45   ar
    29    22    23    2
    30    25    34    1
    31    25    37    1
    32    25    26    1
    33    25    27    1
    34    28    31    1
    35    28    37    1
    36    28    29    1
    37    28    30    1
    38    31    32    1
    39    31    33    1
    40    34    35    1
    41    34    36    1
    42    37    38    1
    43    37    39    1
    44    40    47   ar
    45    41    45   ar
    46    41    48   ar
    47    41    42    1
    48    43    47    1
    49    43    49    1
    50    43    44    1
    51    45    46    1
    52    47    48   ar
    53    49    51    1
    54    49    52    1
    55    49    50    1
    56    51    58   ar
    57    51    60   ar
    58    52    53    1
    59    52    54    1
    60    52    55    1
    61    56    62   ar
    62    56    64   ar
    63    56    57    1
    64    58    64   ar
    65    58    59    1
    66    60    62   ar
    67    60    61    1
    68    62    63    1
    69    64    65    1
@<TRIPOS>SUBSTRUCTURE
     1 RES1        1 GROUP             0 ****  ****    0  
@<TRIPOS>MOLECULE
LIGAND_00455
    65    69     1     0     0
SMALL
USER_CHARGES
****
Generated from the CSD

@<TRIPOS>ATOM
     1 C1      -0.4278  -3.4234 -14.9911   C.ar      1 RES1   0.0000
     2 H2      -1.5097  -3.4068 -14.9158   H         1 RES1   0.0000
     3 C3       2.3298  -3.4280 -15.1557   C.ar      1 RES1   0.0000
     4 H4       3.4132  -3.4197 -15.2151   H         1 RES1   0.0000
     5 C5       0.2584  -4.6050 -14.7273   C.ar      1 RES1   0.0000
     6 C6       0.2422  -2.2650 -15.3426   C.ar      1 RES1   0.0000
     7 H7      -0.3021  -1.3511 -15.5558   H         1 RES1   0.0000
     8 C8       1.6064  -2.2985 -15.4130   C.ar      1 RES1   0.0000
     9 C9       1.6473  -4.5824 -14.8187   C.ar      1 RES1   0.0000
    10 H10      2.2123  -5.4874 -14.6264   H         1 RES1   0.0000
    11 C11     -0.4533  -5.8668 -14.3417   C.2       1 RES1   0.0000
    12 F12      2.2724  -1.1614 -15.7528   F         1 RES1   0.0000
    13 N13     -1.2999  -7.9174 -14.1965   N.am      1 RES1   0.0000
    14 C14     -1.6525  -9.3642 -14.3935   C.3       1 RES1   0.0000
    15 H15     -1.1797  -9.7050 -15.3134   H         1 RES1   0.0000
    16 C16     -2.2977  -7.7936 -11.8799   C.3       1 RES1   0.0000
    17 H17     -2.8377  -7.0472 -11.3011   H         1 RES1   0.0000
    18 H18     -2.9996  -8.5753 -12.1630   H         1 RES1   0.0000
    19 H19     -1.5377  -8.2357 -11.2391   H         1 RES1   0.0000
    20 C20     -1.1594  -5.9688 -13.1688   C.2       1 RES1   0.0000
    21 C21     -1.4160  -4.9157 -12.1531   C.ar      1 RES1   0.0000
    22 O22     -0.0857  -7.5282 -16.0585   O.2       1 RES1   0.0000
    23 C23     -0.5519  -7.1283 -14.9997   C.2       1 RES1   0.0000
    24 N24     -1.6872  -7.1893 -13.0645   N.pl3     1 RES1   0.0000
    25 C25     -1.4386 -11.6810 -13.4375   C.3       1 RES1   0.0000
    26 H26     -1.0810 -12.2495 -12.5803   H         1 RES1   0.0000
    27 H27     -0.9511 -12.0423 -14.3417   H         1 RES1   0.0000
    28 C28     -3.4836 -11.0569 -14.6948   C.3       1 RES1   0.0000
    29 H29     -3.0581 -11.4120 -15.6323   H         1 RES1   0.0000
    30 H30     -4.5649 -11.1843 -14.7157   H         1 RES1   0.0000
    31 C31     -3.1579  -9.5806 -14.5263   C.3       1 RES1   0.0000
    32 H32     -3.5208  -9.0343 -15.3957   H         1 RES1   0.0000
    33 H33     -3.6518  -9.2069 -13.6306   H         1 RES1   0.0000
    34 C34     -1.1120 -10.2109 -13.2405   C.3       1 RES1   0.0000
    35 H35     -1.5602  -9.8693 -12.3086   H         1 RES1   0.0000
    36 H36     -0.0308 -10.0912 -13.1885   H         1 RES1   0.0000
    37 N37     -2.9181 -11.8545 -13.5671   N.4       1 RES1   1.0000
    38 H38     -3.3589 -11.5563 -12.7028   H         1 RES1   0.0000
    39 H39     -3.1191 -12.8362 -13.7282   H         1 RES1   0.0000
    40 N40     -0.8662  -5.0993 -10.9425   N.ar      1 RES1   0.0000
    41 C41     -2.3708  -2.8985 -11.3940   C.ar      1 RES1   0.0000
    42 H42     -2.9709  -2.0147 -11.5841   H         1 RES1   0.0000
    43 N43     -0.5809  -4.3597  -8.7908   N.pl3     1 RES1   0.0000
    44 H44     -0.2988  -3.5380  -8.2564   H         1 RES1   0.0000
    45 C45     -2.1938  -3.7996 -12.4246   C.ar      1 RES1   0.0000
    46 H46     -2.6438  -3.6432 -13.3994   H         1 RES1   0.0000
    47 C47     -1.1127  -4.1667 -10.0084   C.ar      1 RES1   0.0000
    48 N48     -1.8442  -3.0549 -10.1726   N.ar      1 RES1   0.0000
    49 C49     -0.3227  -5.6764  -8.2084   C.3       1 RES1   0.0000
    50 H50     -0.0608  -6.3748  -9.0183   H         1 RES1   0.0000
    51 C51     -1.5254  -6.2264  -7.4670   C.ar      1 RES1   0.0000
    52 C52      0.8758  -5.5428  -7.2762   C.3       1 RES1   0.0000
    53 H53      1.1334  -6.5047  -6.8380   H         1 RES1   0.0000
    54 H54      1.7456  -5.1717  -7.8141   H         1 RES1   0.0000
    55 H55      0.6572  -4.8497  -6.4665   H         1 RES1   0.0000
    56 C56     -3.7349  -7.2245  -6.0952   C.ar      1 RES1   0.0000
    57 H57     -4.5959  -7.6131  -5.5615   H         1 RES1   0.0000
    58 C58     -2.0617  -5.5383  -6.3882   C.ar      1 RES1   0.0000
    59 H59     -1.6148  -4.6005  -6.0750   H         1 RES1   0.0000
    60 C60     -2.1136  -7.4253  -7.8457   C.ar      1 RES1   0.0000
    61 H61     -1.7106  -7.9820  -8.6852   H         1 RES1   0.0000
    62 C62     -3.2121  -7.9200  -7.1631   C.ar      1 RES1   0.0000
    63 H63     -3.6619  -8.8581  -7.4708   H         1 RES1   0.0000
    64 C64     -3.1606  -6.0341  -5.7073   C.ar      1 RES1   0.0000
    65 H65     -3.5698  -5.4836  -4.8668   H         1 RES1   0.0000
@<TRIPOS>BOND
     1     1     5   ar
     2     1     6   ar
     3     1     2    1
     4     3     8   ar
     5     3     9   ar
     6     3     4    1
     7     5     9   ar
     8     5    11    1
     9     6     8   ar
    10     6     7    1
    11     8    12    1
    12     9    10    1
    13    11    20    2
    14    11    23    1
    15    13    14    1
    16    13    23   am
    17    13    24    1
    18    14    31    1
    19    14    34    1
    20    14    15    1
    21    16    24    1
    22    16    17    1
    23    16    18    1
    24    16    19    1
    25    20    21    1
    26    20    24    1
    27    21    40   ar
    28    21    45   ar
    29    22    23    2
    30    25    34    1
    31    25    37    1
    32    25    26    1
    33    25    27    1
    34    28    31    1
    35    28    37    1
    36    28    29    1
    37    28    30    1
    38    31    32    1
    39    31    33    1
    40    34    35    1
    41    34    36    1
    42    37    38    1
    43    37    39    1
    44    40    47   ar
    45    41    45   ar
    46    41    48   ar
    47    41    42    1
    48    43    47    1
    49    43    49    1
    50    43    44    1
    51    45    46    1
    52    47    48   ar
    53    49    51    1
    54    49    52    1
    55    49    50    1
    56    51    58   ar
    57    51    60   ar
    58    52    53    1
    59    52    54    1
    60    52    55    1
    61    56    62   ar
    62    56    64   ar
    63    56    57    1
    64    58    64   ar
    65    58    59    1
    66    60    62   ar
    67    60    61    1
    68    62    63    1
    69    64    65    1
@<TRIPOS>SUBSTRUCTURE
     1 RES1        1 GROUP             0 ****  ****    0  
@<TRIPOS>MOLECULE
LIGAND_00456
    65    69     1     0     0
SMALL
USER_CHARGES
****
Generated from the CSD

@<TRIPOS>ATOM
     1 C1      -1.0399  -3.8488 -12.1432   C.ar      1 RES1   0.0000
     2 H2      -0.1732  -4.3849 -11.7720   H         1 RES1   0.0000
     3 C3      -3.2210  -2.4454 -13.0947   C.ar      1 RES1   0.0000
     4 H4      -4.0714  -1.8847 -13.4683   H         1 RES1   0.0000
     5 C5      -1.8164  -4.4161 -13.1492   C.ar      1 RES1   0.0000
     6 C6      -1.3471  -2.6099 -11.6091   C.ar      1 RES1   0.0000
     7 H7      -0.7414  -2.1800 -10.8183   H         1 RES1   0.0000
     8 C8      -2.4306  -1.9393 -12.1026   C.ar      1 RES1   0.0000
     9 C9      -2.9111  -3.6904 -13.6105   C.ar      1 RES1   0.0000
    10 H10     -3.5410  -4.1064 -14.3886   H         1 RES1   0.0000
    11 C11     -1.4940  -5.7555 -13.7402   C.2       1 RES1   0.0000
    12 F12     -2.7354  -0.7179 -11.5857   F         1 RES1   0.0000
    13 N13     -1.2223  -7.9393 -14.1368   N.am      1 RES1   0.0000
    14 C14     -1.4643  -9.4158 -14.2710   C.3       1 RES1   0.0000
    15 H15     -1.0137  -9.7484 -15.2050   H         1 RES1   0.0000
    16 C16      0.6417  -7.8009 -15.7219   C.3       1 RES1   0.0000
    17 H17      1.3958  -7.0332 -15.8828   H         1 RES1   0.0000
    18 H18      1.0600  -8.5518 -15.0548   H         1 RES1   0.0000
    19 H19      0.4311  -8.2757 -16.6778   H         1 RES1   0.0000
    20 C20     -0.6831  -5.9011 -14.8182   C.2       1 RES1   0.0000
    21 C21      0.0470  -4.8479 -15.5693   C.ar      1 RES1   0.0000
    22 O22     -2.6319  -7.4257 -12.3843   O.2       1 RES1   0.0000
    23 C23     -1.8847  -7.0661 -13.2847   C.2       1 RES1   0.0000
    24 N24     -0.5756  -7.2209 -15.1535   N.3       1 RES1   0.0000
    25 C25     -1.0106 -11.6738 -13.2599   C.3       1 RES1   0.0000
    26 H26     -0.5630 -12.1821 -12.4070   H         1 RES1   0.0000
    27 H27     -0.5427 -12.0252 -14.1783   H         1 RES1   0.0000
    28 C28     -3.1628 -11.2600 -14.4212   C.3       1 RES1   0.0000
    29 H29     -2.7591 -11.6114 -15.3696   H         1 RES1   0.0000
    30 H30     -4.2296 -11.4749 -14.3789   H         1 RES1   0.0000
    31 C31     -2.9516  -9.7573 -14.3147   C.3       1 RES1   0.0000
    32 H32     -3.4032  -9.2720 -15.1787   H         1 RES1   0.0000
    33 H33     -3.4272  -9.3944 -13.4047   H         1 RES1   0.0000
    34 C34     -0.7963 -10.1762 -13.1248   C.3       1 RES1   0.0000
    35 H35     -1.2219  -9.8404 -12.1803   H         1 RES1   0.0000
    36 H36      0.2725  -9.9680 -13.1357   H         1 RES1   0.0000
    37 N37     -2.4754 -11.9704 -13.3029   N.4       1 RES1   1.0000
    38 H38     -2.8936 -11.6795 -12.4250   H         1 RES1   0.0000
    39 H39     -2.6029 -12.9701 -13.4236   H         1 RES1   0.0000
    40 N40      0.4612  -3.7830 -14.8651   N.ar      1 RES1   0.0000
    41 C41      0.9610  -3.8913 -17.5203   C.ar      1 RES1   0.0000
    42 H42      1.1633  -3.9442 -18.5850   H         1 RES1   0.0000
    43 N43      1.4959  -1.7367 -14.8393   N.pl3     1 RES1   0.0000
    44 H44      1.2517  -1.6928 -13.8499   H         1 RES1   0.0000
    45 C45      0.2844  -4.9412 -16.9329   C.ar      1 RES1   0.0000
    46 H46     -0.0480  -5.7971 -17.5109   H         1 RES1   0.0000
    47 C47      1.0996  -2.8123 -15.5383   C.ar      1 RES1   0.0000
    48 N48      1.3807  -2.8106 -16.8496   N.ar      1 RES1   0.0000
    49 C49      2.2007  -0.5948 -15.4215   C.3       1 RES1   0.0000
    50 H50      1.8510  -0.4549 -16.4560   H         1 RES1   0.0000
    51 C51      3.7036  -0.7931 -15.4427   C.ar      1 RES1   0.0000
    52 C52      1.8271   0.6411 -14.6114   C.3       1 RES1   0.0000
    53 H53      2.3006   1.5301 -15.0228   H         1 RES1   0.0000
    54 H54      0.7504   0.7973 -14.6171   H         1 RES1   0.0000
    55 H55      2.1484   0.5343 -13.5774   H         1 RES1   0.0000
    56 C56      6.4652  -1.1588 -15.4662   C.ar      1 RES1   0.0000
    57 H57      7.5406  -1.3019 -15.4756   H         1 RES1   0.0000
    58 C58      4.4043  -0.9877 -14.2611   C.ar      1 RES1   0.0000
    59 H59      3.8701  -0.9971 -13.3167   H         1 RES1   0.0000
    60 C60      4.4108  -0.7822 -16.6371   C.ar      1 RES1   0.0000
    61 H61      3.8847  -0.6300 -17.5737   H         1 RES1   0.0000
    62 C62      5.7834  -0.9645 -16.6473   C.ar      1 RES1   0.0000
    63 H63      6.3229  -0.9543 -17.5885   H         1 RES1   0.0000
    64 C64      5.7766  -1.1706 -14.2732   C.ar      1 RES1   0.0000
    65 H65      6.3104  -1.3234 -13.3411   H         1 RES1   0.0000
@<TRIPOS>BOND
     1     1     5   ar
     2     1     6   ar
     3     1     2    1
     4     3     8   ar
     5     3     9   ar
     6     3     4    1
     7     5     9   ar
     8     5    11    1
     9     6     8   ar
    10     6     7    1
    11     8    12    1
    12     9    10    1
    13    11    20    2
    14    11    23    1
    15    13    14    1
    16    13    23   am
    17    13    24    1
    18    14    31    1
    19    14    34    1
    20    14    15    1
    21    16    24    1
    22    16    17    1
    23    16    18    1
    24    16    19    1
    25    20    21    1
    26    20    24    1
    27    21    40   ar
    28    21    45   ar
    29    22    23    2
    30    25    34    1
    31    25    37    1
    32    25    26    1
    33    25    27    1
    34    28    31    1
    35    28    37    1
    36    28    29    1
    37    28    30    1
    38    31    32    1
    39    31    33    1
    40    34    35    1
    41    34    36    1
    42    37    38    1
    43    37    39    1
    44    40    47   ar
    45    41    45   ar
    46    41    48   ar
    47    41    42    1
    48    43    47    1
    49    43    49    1
    50    43    44    1
    51    45    46    1
    52    47    48   ar
    53    49    51    1
    54    49    52    1
    55    49    50    1
    56    51    58   ar
    57    51    60   ar
    58    52    53    1
    59    52    54    1
    60    52    55    1
    61    56    62   ar
    62    56    64   ar
    63    56    57    1
    64    58    64   ar
    65    58    59    1
    66    60    62   ar
    67    60    61    1
    68    62    63    1
    69    64    65    1
@<TRIPOS>SUBSTRUCTURE
     1 RES1        1 GROUP             0 ****  ****    0  
@<TRIPOS>MOLECULE
LIGAND_00457
    65    69     1     0     0
SMALL
USER_CHARGES
****
Generated from the CSD

@<TRIPOS>ATOM
     1 C1      -1.5967  -4.0641 -11.8806   C.ar      1 RES1   0.0000
     2 H2      -1.1030  -4.7824 -11.2350   H         1 RES1   0.0000
     3 C3      -2.8227  -2.2026 -13.5126   C.ar      1 RES1   0.0000
     4 H4      -3.2976  -1.4634 -14.1493   H         1 RES1   0.0000
     5 C5      -1.8780  -4.4091 -13.1991   C.ar      1 RES1   0.0000
     6 C6      -1.9290  -2.8194 -11.3756   C.ar      1 RES1   0.0000
     7 H7      -1.7144  -2.5630 -10.3436   H         1 RES1   0.0000
     8 C8      -2.5322  -1.9195 -12.2084   C.ar      1 RES1   0.0000
     9 C9      -2.4978  -3.4548 -14.0010   C.ar      1 RES1   0.0000
    10 H10     -2.7372  -3.6934 -15.0309   H         1 RES1   0.0000
    11 C11     -1.5206  -5.7521 -13.7613   C.2       1 RES1   0.0000
    12 F12     -2.8569  -0.6915 -11.7202   F         1 RES1   0.0000
    13 N13     -1.2050  -7.9370 -14.1167   N.am      1 RES1   0.0000
    14 C14     -1.4201  -9.4192 -14.2328   C.3       1 RES1   0.0000
    15 H15     -0.9430  -9.7589 -15.1509   H         1 RES1   0.0000
    16 C16      0.6923  -7.7927 -15.6613   C.3       1 RES1   0.0000
    17 H17      1.5053  -7.0724 -15.5982   H         1 RES1   0.0000
    18 H18      0.9817  -8.6797 -15.1014   H         1 RES1   0.0000
    19 H19      0.5691  -8.0752 -16.7047   H         1 RES1   0.0000
    20 C20     -0.6831  -5.9011 -14.8182   C.2       1 RES1   0.0000
    21 C21      0.0470  -4.8479 -15.5693   C.ar      1 RES1   0.0000
    22 O22     -2.6623  -7.4193 -12.4050   O.2       1 RES1   0.0000
    23 C23     -1.9006  -7.0616 -13.2939   C.2       1 RES1   0.0000
    24 N24     -0.5468  -7.2240 -15.1299   N.3       1 RES1   0.0000
    25 C25     -0.9535 -11.6534 -13.1758   C.3       1 RES1   0.0000
    26 H26     -0.5175 -12.1409 -12.3051   H         1 RES1   0.0000
    27 H27     -0.4592 -12.0113 -14.0777   H         1 RES1   0.0000
    28 C28     -3.0850 -11.2931 -14.3920   C.3       1 RES1   0.0000
    29 H29     -2.6540 -11.6525 -15.3253   H         1 RES1   0.0000
    30 H30     -4.1488 -11.5247 -14.3704   H         1 RES1   0.0000
    31 C31     -2.9003  -9.7857 -14.3047   C.3       1 RES1   0.0000
    32 H32     -3.3398  -9.3214 -15.1863   H         1 RES1   0.0000
    33 H33     -3.4024  -9.4165 -13.4116   H         1 RES1   0.0000
    34 C34     -0.7664 -10.1506 -13.0598   C.3       1 RES1   0.0000
    35 H35     -1.2188  -9.8072 -12.1307   H         1 RES1   0.0000
    36 H36      0.2989  -9.9251 -13.0499   H         1 RES1   0.0000
    37 N37     -2.4120 -11.9746 -13.2473   N.4       1 RES1   1.0000
    38 H38     -2.8548 -11.6770 -12.3838   H         1 RES1   0.0000
    39 H39     -2.5207 -12.9781 -13.3548   H         1 RES1   0.0000
    40 N40      0.2250  -5.0583 -16.8830   N.ar      1 RES1   0.0000
    41 C41      1.2109  -2.8065 -15.7564   C.ar      1 RES1   0.0000
    42 H42      1.5987  -1.9024 -15.2988   H         1 RES1   0.0000
    43 N43      1.1035  -4.3445 -18.8772   N.pl3     1 RES1   0.0000
    44 H44      1.5326  -3.6004 -19.4273   H         1 RES1   0.0000
    45 C45      0.5369  -3.7052 -14.9542   C.ar      1 RES1   0.0000
    46 H46      0.3995  -3.5269 -13.8928   H         1 RES1   0.0000
    47 C47      0.9062  -4.1252 -17.5674   C.ar      1 RES1   0.0000
    48 N48      1.4138  -2.9891 -17.0676   N.ar      1 RES1   0.0000
    49 C49      0.6845  -5.5585 -19.5773   C.3       1 RES1   0.0000
    50 H50     -0.1944  -5.9766 -19.0627   H         1 RES1   0.0000
    51 C51      1.7732  -6.6132 -19.6073   C.ar      1 RES1   0.0000
    52 C52      0.2755  -5.1595 -20.9903   C.3       1 RES1   0.0000
    53 H53     -0.0776  -6.0239 -21.5488   H         1 RES1   0.0000
    54 H54     -0.5231  -4.4209 -20.9686   H         1 RES1   0.0000
    55 H55      1.1187  -4.7308 -21.5278   H         1 RES1   0.0000
    56 C56      3.7729  -8.5514 -19.6781   C.ar      1 RES1   0.0000
    57 H57      4.5522  -9.3058 -19.7055   H         1 RES1   0.0000
    58 C58      2.2197  -7.1292 -20.8154   C.ar      1 RES1   0.0000
    59 H59      1.7843  -6.7737 -21.7435   H         1 RES1   0.0000
    60 C60      2.3442  -7.0869 -18.4341   C.ar      1 RES1   0.0000
    61 H61      2.0101  -6.6996 -17.4773   H         1 RES1   0.0000
    62 C62      3.3384  -8.0501 -18.4709   C.ar      1 RES1   0.0000
    63 H63      3.7760  -8.4104 -17.5459   H         1 RES1   0.0000
    64 C64      3.2143  -8.0916 -20.8503   C.ar      1 RES1   0.0000
    65 H65      3.5542  -8.4842 -21.8029   H         1 RES1   0.0000
@<TRIPOS>BOND
     1     1     5   ar
     2     1     6   ar
     3     1     2    1
     4     3     8   ar
     5     3     9   ar
     6     3     4    1
     7     5     9   ar
     8     5    11    1
     9     6     8   ar
    10     6     7    1
    11     8    12    1
    12     9    10    1
    13    11    20    2
    14    11    23    1
    15    13    14    1
    16    13    23   am
    17    13    24    1
    18    14    31    1
    19    14    34    1
    20    14    15    1
    21    16    24    1
    22    16    17    1
    23    16    18    1
    24    16    19    1
    25    20    21    1
    26    20    24    1
    27    21    40   ar
    28    21    45   ar
    29    22    23    2
    30    25    34    1
    31    25    37    1
    32    25    26    1
    33    25    27    1
    34    28    31    1
    35    28    37    1
    36    28    29    1
    37    28    30    1
    38    31    32    1
    39    31    33    1
    40    34    35    1
    41    34    36    1
    42    37    38    1
    43    37    39    1
    44    40    47   ar
    45    41    45   ar
    46    41    48   ar
    47    41    42    1
    48    43    47    1
    49    43    49    1
    50    43    44    1
    51    45    46    1
    52    47    48   ar
    53    49    51    1
    54    49    52    1
    55    49    50    1
    56    51    58   ar
    57    51    60   ar
    58    52    53    1
    59    52    54    1
    60    52    55    1
    61    56    62   ar
    62    56    64   ar
    63    56    57    1
    64    58    64   ar
    65    58    59    1
    66    60    62   ar
    67    60    61    1
    68    62    63    1
    69    64    65    1
@<TRIPOS>SUBSTRUCTURE
     1 RES1        1 GROUP             0 ****  ****    0  
@<TRIPOS>MOLECULE
LIGAND_00458
    65    69     1     0     0
SMALL
USER_CHARGES
****
Generated from the CSD

@<TRIPOS>ATOM
     1 C1      -0.7027  -3.3903 -14.9781   C.ar      1 RES1   0.0000
     2 H2      -1.7635  -3.4211 -14.7543   H         1 RES1   0.0000
     3 C3       2.0037  -3.2747 -15.5205   C.ar      1 RES1   0.0000
     4 H4       3.0672  -3.2194 -15.7282   H         1 RES1   0.0000
     5 C5       0.0599  -4.5461 -14.8386   C.ar      1 RES1   0.0000
     6 C6      -0.1343  -2.1985 -15.3916   C.ar      1 RES1   0.0000
     7 H7      -0.7388  -1.3050 -15.5067   H         1 RES1   0.0000
     8 C8       1.2073  -2.1727 -15.6497   C.ar      1 RES1   0.0000
     9 C9       1.4207  -4.4628 -15.1196   C.ar      1 RES1   0.0000
    10 H10      2.0424  -5.3462 -15.0278   H         1 RES1   0.0000
    11 C11     -0.5410  -5.8434 -14.3880   C.2       1 RES1   0.0000
    12 F12      1.7741  -1.0026 -16.0515   F         1 RES1   0.0000
    13 N13     -1.2406  -7.9410 -14.1570   N.am      1 RES1   0.0000
    14 C14     -1.5106  -9.4109 -14.3092   C.3       1 RES1   0.0000
    15 H15     -1.0787  -9.7377 -15.2540   H         1 RES1   0.0000
    16 C16     -2.0882  -7.8386 -11.7803   C.3       1 RES1   0.0000
    17 H17     -2.6361  -7.1177 -11.1771   H         1 RES1   0.0000
    18 H18     -2.7549  -8.6688 -12.0043   H         1 RES1   0.0000
    19 H19     -1.2602  -8.2192 -11.1860   H         1 RES1   0.0000
    20 C20     -1.1594  -5.9688 -13.1688   C.2       1 RES1   0.0000
    21 C21     -1.4160  -4.9157 -12.1531   C.ar      1 RES1   0.0000
    22 O22     -0.1808  -7.5094 -16.1020   O.2       1 RES1   0.0000
    23 C23     -0.6007  -7.1206 -15.0199   C.2       1 RES1   0.0000
    24 N24     -1.5984  -7.2184 -13.0119   N.pl3     1 RES1   0.0000
    25 C25     -1.0832 -11.6911 -13.3371   C.3       1 RES1   0.0000
    26 H26     -0.6332 -12.2196 -12.4980   H         1 RES1   0.0000
    27 H27     -0.6343 -12.0371 -14.2670   H         1 RES1   0.0000
    28 C28     -3.2435 -11.2227 -14.4624   C.3       1 RES1   0.0000
    29 H29     -2.8590 -11.5671 -15.4213   H         1 RES1   0.0000
    30 H30     -4.3132 -11.4194 -14.4084   H         1 RES1   0.0000
    31 C31     -3.0042  -9.7256 -14.3371   C.3       1 RES1   0.0000
    32 H32     -3.4588  -9.2199 -15.1877   H         1 RES1   0.0000
    33 H33     -3.4608  -9.3678 -13.4155   H         1 RES1   0.0000
    34 C34     -0.8407 -10.1997 -13.1834   C.3       1 RES1   0.0000
    35 H35     -1.2473  -9.8704 -12.2284   H         1 RES1   0.0000
    36 H36      0.2315 -10.0101 -13.2062   H         1 RES1   0.0000
    37 N37     -2.5536 -11.9613 -13.3641   N.4       1 RES1   1.0000
    38 H38     -2.9546 -11.6761 -12.4764   H         1 RES1   0.0000
    39 H39     -2.7004 -12.9568 -13.4974   H         1 RES1   0.0000
    40 N40     -0.4619  -4.7249 -11.2286   N.ar      1 RES1   0.0000
    41 C41     -2.7124  -3.2288 -11.1379   C.ar      1 RES1   0.0000
    42 H42     -3.6155  -2.6280 -11.1111   H         1 RES1   0.0000
    43 N43      0.2500  -3.6161  -9.3518   N.pl3     1 RES1   0.0000
    44 H44      1.0646  -4.2296  -9.3713   H         1 RES1   0.0000
    45 C45     -2.5846  -4.1682 -12.1411   C.ar      1 RES1   0.0000
    46 H46     -3.3622  -4.3161 -12.8831   H         1 RES1   0.0000
    47 C47     -0.6941  -3.7933 -10.2898   C.ar      1 RES1   0.0000
    48 N48     -1.7846  -3.0185 -10.1952   N.ar      1 RES1   0.0000
    49 C49      0.1539  -2.6405  -8.2662   C.3       1 RES1   0.0000
    50 H50     -0.4752  -1.8013  -8.6012   H         1 RES1   0.0000
    51 C51      1.5083  -2.0954  -7.8576   C.ar      1 RES1   0.0000
    52 C52     -0.5341  -3.3237  -7.0901   C.3       1 RES1   0.0000
    53 H53     -0.6615  -2.6304  -6.2614   H         1 RES1   0.0000
    54 H54     -1.5165  -3.6929  -7.3770   H         1 RES1   0.0000
    55 H55      0.0552  -4.1677  -6.7378   H         1 RES1   0.0000
    56 C56      3.9948  -1.0992  -7.0923   C.ar      1 RES1   0.0000
    57 H57      4.9635  -0.7119  -6.7947   H         1 RES1   0.0000
    58 C58      1.9722  -2.2634  -6.5608   C.ar      1 RES1   0.0000
    59 H59      1.3588  -2.7886  -5.8361   H         1 RES1   0.0000
    60 C60      2.3108  -1.4171  -8.7646   C.ar      1 RES1   0.0000
    61 H61      1.9685  -1.2719  -9.7839   H         1 RES1   0.0000
    62 C62      3.5467  -0.9228  -8.3830   C.ar      1 RES1   0.0000
    63 H63      4.1635  -0.3953  -9.1029   H         1 RES1   0.0000
    64 C64      3.2084  -1.7692  -6.1811   C.ar      1 RES1   0.0000
    65 H65      3.5583  -1.9100  -5.1639   H         1 RES1   0.0000
@<TRIPOS>BOND
     1     1     5   ar
     2     1     6   ar
     3     1     2    1
     4     3     8   ar
     5     3     9   ar
     6     3     4    1
     7     5     9   ar
     8     5    11    1
     9     6     8   ar
    10     6     7    1
    11     8    12    1
    12     9    10    1
    13    11    20    2
    14    11    23    1
    15    13    14    1
    16    13    23   am
    17    13    24    1
    18    14    31    1
    19    14    34    1
    20    14    15    1
    21    16    24    1
    22    16    17    1
    23    16    18    1
    24    16    19    1
    25    20    21    1
    26    20    24    1
    27    21    40   ar
    28    21    45   ar
    29    22    23    2
    30    25    34    1
    31    25    37    1
    32    25    26    1
    33    25    27    1
    34    28    31    1
    35    28    37    1
    36    28    29    1
    37    28    30    1
    38    31    32    1
    39    31    33    1
    40    34    35    1
    41    34    36    1
    42    37    38    1
    43    37    39    1
    44    40    47   ar
    45    41    45   ar
    46    41    48   ar
    47    41    42    1
    48    43    47    1
    49    43    49    1
    50    43    44    1
    51    45    46    1
    52    47    48   ar
    53    49    51    1
    54    49    52    1
    55    49    50    1
    56    51    58   ar
    57    51    60   ar
    58    52    53    1
    59    52    54    1
    60    52    55    1
    61    56    62   ar
    62    56    64   ar
    63    56    57    1
    64    58    64   ar
    65    58    59    1
    66    60    62   ar
    67    60    61    1
    68    62    63    1
    69    64    65    1
@<TRIPOS>SUBSTRUCTURE
     1 RES1        1 GROUP             0 ****  ****    0  
@<TRIPOS>MOLECULE
LIGAND_00459
    65    69     1     0     0
SMALL
USER_CHARGES
****
Generated from the CSD

@<TRIPOS>ATOM
     1 C1      -0.7027  -3.3903 -14.9781   C.ar      1 RES1   0.0000
     2 H2      -1.7635  -3.4211 -14.7543   H         1 RES1   0.0000
     3 C3       2.0037  -3.2747 -15.5205   C.ar      1 RES1   0.0000
     4 H4       3.0672  -3.2194 -15.7282   H         1 RES1   0.0000
     5 C5       0.0599  -4.5461 -14.8386   C.ar      1 RES1   0.0000
     6 C6      -0.1343  -2.1985 -15.3916   C.ar      1 RES1   0.0000
     7 H7      -0.7388  -1.3050 -15.5067   H         1 RES1   0.0000
     8 C8       1.2073  -2.1727 -15.6497   C.ar      1 RES1   0.0000
     9 C9       1.4207  -4.4628 -15.1196   C.ar      1 RES1   0.0000
    10 H10      2.0424  -5.3462 -15.0278   H         1 RES1   0.0000
    11 C11     -0.5410  -5.8434 -14.3880   C.2       1 RES1   0.0000
    12 F12      1.7741  -1.0026 -16.0515   F         1 RES1   0.0000
    13 N13     -1.2406  -7.9410 -14.1570   N.am      1 RES1   0.0000
    14 C14     -1.5106  -9.4109 -14.3092   C.3       1 RES1   0.0000
    15 H15     -1.0787  -9.7377 -15.2540   H         1 RES1   0.0000
    16 C16     -2.0882  -7.8386 -11.7803   C.3       1 RES1   0.0000
    17 H17     -2.6361  -7.1177 -11.1771   H         1 RES1   0.0000
    18 H18     -2.7549  -8.6688 -12.0043   H         1 RES1   0.0000
    19 H19     -1.2602  -8.2192 -11.1860   H         1 RES1   0.0000
    20 C20     -1.1594  -5.9688 -13.1688   C.2       1 RES1   0.0000
    21 C21     -1.4160  -4.9157 -12.1531   C.ar      1 RES1   0.0000
    22 O22     -0.1808  -7.5094 -16.1020   O.2       1 RES1   0.0000
    23 C23     -0.6007  -7.1206 -15.0199   C.2       1 RES1   0.0000
    24 N24     -1.5984  -7.2184 -13.0119   N.pl3     1 RES1   0.0000
    25 C25     -1.0832 -11.6911 -13.3371   C.3       1 RES1   0.0000
    26 H26     -0.6332 -12.2196 -12.4980   H         1 RES1   0.0000
    27 H27     -0.6343 -12.0371 -14.2670   H         1 RES1   0.0000
    28 C28     -3.2435 -11.2227 -14.4624   C.3       1 RES1   0.0000
    29 H29     -2.8590 -11.5671 -15.4213   H         1 RES1   0.0000
    30 H30     -4.3132 -11.4194 -14.4084   H         1 RES1   0.0000
    31 C31     -3.0042  -9.7256 -14.3371   C.3       1 RES1   0.0000
    32 H32     -3.4588  -9.2199 -15.1877   H         1 RES1   0.0000
    33 H33     -3.4608  -9.3678 -13.4155   H         1 RES1   0.0000
    34 C34     -0.8407 -10.1997 -13.1834   C.3       1 RES1   0.0000
    35 H35     -1.2473  -9.8704 -12.2284   H         1 RES1   0.0000
    36 H36      0.2315 -10.0101 -13.2062   H         1 RES1   0.0000
    37 N37     -2.5536 -11.9613 -13.3641   N.4       1 RES1   1.0000
    38 H38     -2.9546 -11.6761 -12.4764   H         1 RES1   0.0000
    39 H39     -2.7004 -12.9568 -13.4974   H         1 RES1   0.0000
    40 N40     -2.5784  -4.2520 -12.2536   N.ar      1 RES1   0.0000
    41 C41     -0.8501  -3.6050 -10.2773   C.ar      1 RES1   0.0000
    42 H42     -0.1544  -3.3547  -9.4832   H         1 RES1   0.0000
    43 N43     -3.9628  -2.6010 -11.4687   N.pl3     1 RES1   0.0000
    44 H44     -4.5739  -2.8227 -12.2547   H         1 RES1   0.0000
    45 C45     -0.5032  -4.6139 -11.1531   C.ar      1 RES1   0.0000
    46 H46      0.4396  -5.1435 -11.0647   H         1 RES1   0.0000
    47 C47     -2.8100  -3.2801 -11.3565   C.ar      1 RES1   0.0000
    48 N48     -1.9968  -2.9172 -10.3539   N.ar      1 RES1   0.0000
    49 C49     -4.3679  -1.5199 -10.5706   C.3       1 RES1   0.0000
    50 H50     -3.9028  -1.6861  -9.5866   H         1 RES1   0.0000
    51 C51     -5.8715  -1.4526 -10.3886   C.ar      1 RES1   0.0000
    52 C52     -3.8315  -0.2147 -11.1468   C.3       1 RES1   0.0000
    53 H53     -4.0773   0.6236 -10.4984   H         1 RES1   0.0000
    54 H54     -2.7495  -0.2542 -11.2540   H         1 RES1   0.0000
    55 H55     -4.2621  -0.0219 -12.1272   H         1 RES1   0.0000
    56 C56     -8.6344  -1.3146 -10.0600   C.ar      1 RES1   0.0000
    57 H57     -9.7105  -1.2612  -9.9326   H         1 RES1   0.0000
    58 C58     -6.5729  -0.3099 -10.7453   C.ar      1 RES1   0.0000
    59 H59     -6.0387   0.5402 -11.1567   H         1 RES1   0.0000
    60 C60     -6.5780  -2.5251  -9.8617   C.ar      1 RES1   0.0000
    61 H61     -6.0509  -3.4286  -9.5739   H         1 RES1   0.0000
    62 C62     -7.9513  -2.4552  -9.6993   C.ar      1 RES1   0.0000
    63 H63     -8.4904  -3.3015  -9.2868   H         1 RES1   0.0000
    64 C64     -7.9462  -0.2420 -10.5829   C.ar      1 RES1   0.0000
    65 H65     -8.4809   0.6578 -10.8682   H         1 RES1   0.0000
@<TRIPOS>BOND
     1     1     5   ar
     2     1     6   ar
     3     1     2    1
     4     3     8   ar
     5     3     9   ar
     6     3     4    1
     7     5     9   ar
     8     5    11    1
     9     6     8   ar
    10     6     7    1
    11     8    12    1
    12     9    10    1
    13    11    20    2
    14    11    23    1
    15    13    14    1
    16    13    23   am
    17    13    24    1
    18    14    31    1
    19    14    34    1
    20    14    15    1
    21    16    24    1
    22    16    17    1
    23    16    18    1
    24    16    19    1
    25    20    21    1
    26    20    24    1
    27    21    40   ar
    28    21    45   ar
    29    22    23    2
    30    25    34    1
    31    25    37    1
    32    25    26    1
    33    25    27    1
    34    28    31    1
    35    28    37    1
    36    28    29    1
    37    28    30    1
    38    31    32    1
    39    31    33    1
    40    34    35    1
    41    34    36    1
    42    37    38    1
    43    37    39    1
    44    40    47   ar
    45    41    45   ar
    46    41    48   ar
    47    41    42    1
    48    43    47    1
    49    43    49    1
    50    43    44    1
    51    45    46    1
    52    47    48   ar
    53    49    51    1
    54    49    52    1
    55    49    50    1
    56    51    58   ar
    57    51    60   ar
    58    52    53    1
    59    52    54    1
    60    52    55    1
    61    56    62   ar
    62    56    64   ar
    63    56    57    1
    64    58    64   ar
    65    58    59    1
    66    60    62   ar
    67    60    61    1
    68    62    63    1
    69    64    65    1
@<TRIPOS>SUBSTRUCTURE
     1 RES1        1 GROUP             0 ****  ****    0  
@<TRIPOS>MOLECULE
LIGAND_00460
    65    69     1     0     0
SMALL
USER_CHARGES
****
Generated from the CSD

@<TRIPOS>ATOM
     1 C1       1.8906  -5.0836 -12.2341   C.ar      1 RES1   0.0000
     2 H2       2.5277  -5.6445 -12.9093   H         1 RES1   0.0000
     3 C3       0.2895  -3.6158 -10.5271   C.ar      1 RES1   0.0000
     4 H4      -0.3329  -3.0302  -9.8585   H         1 RES1   0.0000
     5 C5       0.5108  -5.2551 -12.2944   C.ar      1 RES1   0.0000
     6 C6       2.4682  -4.2065 -11.3333   C.ar      1 RES1   0.0000
     7 H7       3.5455  -4.0867 -11.2872   H         1 RES1   0.0000
     8 C8       1.6495  -3.4929 -10.5040   C.ar      1 RES1   0.0000
     9 C9      -0.2744  -4.5057 -11.4227   C.ar      1 RES1   0.0000
    10 H10     -1.3522  -4.6203 -11.4386   H         1 RES1   0.0000
    11 C11     -0.1297  -6.1986 -13.2674   C.2       1 RES1   0.0000
    12 F12      2.2105  -2.6244  -9.6191   F         1 RES1   0.0000
    13 N13     -1.2569  -7.9297 -14.1556   N.am      1 RES1   0.0000
    14 C14     -1.5488  -9.3942 -14.3184   C.3       1 RES1   0.0000
    15 H15     -1.2756  -9.6825 -15.3324   H         1 RES1   0.0000
    16 C16     -1.4310  -7.0905 -16.4152   C.3       1 RES1   0.0000
    17 H17     -0.7960  -7.0599 -17.2982   H         1 RES1   0.0000
    18 H18     -2.1153  -7.9300 -16.5193   H         1 RES1   0.0000
    19 H19     -2.0185  -6.1752 -16.3876   H         1 RES1   0.0000
    20 C20     -0.0279  -6.1202 -14.6126   C.2       1 RES1   0.0000
    21 C21      0.6269  -5.0726 -15.4374   C.ar      1 RES1   0.0000
    22 O22     -1.1679  -7.8741 -11.8601   O.2       1 RES1   0.0000
    23 C23     -0.8987  -7.3678 -12.9416   C.2       1 RES1   0.0000
    24 N24     -0.6250  -7.2242 -15.2013   N.3       1 RES1   0.0000
    25 C25     -0.9715 -11.7073 -13.5163   C.3       1 RES1   0.0000
    26 H26     -0.3921 -12.2647 -12.7818   H         1 RES1   0.0000
    27 H27     -0.6789 -12.0153 -14.5190   H         1 RES1   0.0000
    28 C28     -3.2849 -11.2085 -14.2590   C.3       1 RES1   0.0000
    29 H29     -3.0606 -11.5141 -15.2799   H         1 RES1   0.0000
    30 H30     -4.3319 -11.4130 -14.0406   H         1 RES1   0.0000
    31 C31     -3.0275  -9.7159 -14.1168   C.3       1 RES1   0.0000
    32 H32     -3.6133  -9.1809 -14.8627   H         1 RES1   0.0000
    33 H33     -3.3290  -9.3959 -13.1205   H         1 RES1   0.0000
    34 C34     -0.7063 -10.2215 -13.3467   C.3       1 RES1   0.0000
    35 H35     -0.9530  -9.9309 -12.3266   H         1 RES1   0.0000
    36 H36      0.3482 -10.0252 -13.5351   H         1 RES1   0.0000
    37 N37     -2.4271 -11.9845 -13.3158   N.4       1 RES1   1.0000
    38 H38     -2.6791 -11.7353 -12.3647   H         1 RES1   0.0000
    39 H39     -2.5942 -12.9749 -13.4617   H         1 RES1   0.0000
    40 N40      0.6201  -3.8247 -14.9431   N.ar      1 RES1   0.0000
    41 C41      1.7732  -4.2925 -17.3438   C.ar      1 RES1   0.0000
    42 H42      2.2393  -4.4886 -18.3038   H         1 RES1   0.0000
    43 N43      1.1615  -1.6123 -15.2087   N.pl3     1 RES1   0.0000
    44 H44      1.6318  -0.8833 -15.7451   H         1 RES1   0.0000
    45 C45      1.2088  -5.3536 -16.6650   C.ar      1 RES1   0.0000
    46 H46      1.2178  -6.3586 -17.0736   H         1 RES1   0.0000
    47 C47      1.1863  -2.8647 -15.6920   C.ar      1 RES1   0.0000
    48 N48      1.7765  -3.0345 -16.8841   N.ar      1 RES1   0.0000
    49 C49      0.5567  -1.2389 -13.9303   C.3       1 RES1   0.0000
    50 H50     -0.2348  -1.9654 -13.6893   H         1 RES1   0.0000
    51 C51     -0.0550   0.1479 -13.9634   C.ar      1 RES1   0.0000
    52 C52      1.6403  -1.3294 -12.8622   C.3       1 RES1   0.0000
    53 H53      1.2012  -1.3439 -11.8669   H         1 RES1   0.0000
    54 H54      2.2310  -2.2348 -12.9852   H         1 RES1   0.0000
    55 H55      2.3122  -0.4759 -12.9233   H         1 RES1   0.0000
    56 C56     -1.1677   2.7008 -14.0343   C.ar      1 RES1   0.0000
    57 H57     -1.6017   3.6948 -14.0623   H         1 RES1   0.0000
    58 C58      0.5137   1.1493 -14.7374   C.ar      1 RES1   0.0000
    59 H59      1.4027   0.9354 -15.3215   H         1 RES1   0.0000
    60 C60     -1.1901   0.4481 -13.2230   C.ar      1 RES1   0.0000
    61 H61     -1.6514  -0.3182 -12.6090   H         1 RES1   0.0000
    62 C62     -1.7423   1.7173 -13.2595   C.ar      1 RES1   0.0000
    63 H63     -2.6302   1.9373 -12.6760   H         1 RES1   0.0000
    64 C64     -0.0402   2.4176 -14.7732   C.ar      1 RES1   0.0000
    65 H65      0.4148   3.1897 -15.3846   H         1 RES1   0.0000
@<TRIPOS>BOND
     1     1     5   ar
     2     1     6   ar
     3     1     2    1
     4     3     8   ar
     5     3     9   ar
     6     3     4    1
     7     5     9   ar
     8     5    11    1
     9     6     8   ar
    10     6     7    1
    11     8    12    1
    12     9    10    1
    13    11    20    2
    14    11    23    1
    15    13    14    1
    16    13    23   am
    17    13    24    1
    18    14    31    1
    19    14    34    1
    20    14    15    1
    21    16    24    1
    22    16    17    1
    23    16    18    1
    24    16    19    1
    25    20    21    1
    26    20    24    1
    27    21    40   ar
    28    21    45   ar
    29    22    23    2
    30    25    34    1
    31    25    37    1
    32    25    26    1
    33    25    27    1
    34    28    31    1
    35    28    37    1
    36    28    29    1
    37    28    30    1
    38    31    32    1
    39    31    33    1
    40    34    35    1
    41    34    36    1
    42    37    38    1
    43    37    39    1
    44    40    47   ar
    45    41    45   ar
    46    41    48   ar
    47    41    42    1
    48    43    47    1
    49    43    49    1
    50    43    44    1
    51    45    46    1
    52    47    48   ar
    53    49    51    1
    54    49    52    1
    55    49    50    1
    56    51    58   ar
    57    51    60   ar
    58    52    53    1
    59    52    54    1
    60    52    55    1
    61    56    62   ar
    62    56    64   ar
    63    56    57    1
    64    58    64   ar
    65    58    59    1
    66    60    62   ar
    67    60    61    1
    68    62    63    1
    69    64    65    1
@<TRIPOS>SUBSTRUCTURE
     1 RES1        1 GROUP             0 ****  ****    0  
@<TRIPOS>MOLECULE
LIGAND_00461
    65    69     1     0     0
SMALL
USER_CHARGES
****
Generated from the CSD

@<TRIPOS>ATOM
     1 C1      -2.5266  -3.8359 -12.7510   C.ar      1 RES1   0.0000
     2 H2      -2.7653  -4.5213 -11.9450   H         1 RES1   0.0000
     3 C3      -1.9012  -2.0601 -14.7728   C.ar      1 RES1   0.0000
     4 H4      -1.6528  -1.3550 -15.5591   H         1 RES1   0.0000
     5 C5      -1.8265  -4.3009 -13.8602   C.ar      1 RES1   0.0000
     6 C6      -2.9210  -2.5133 -12.6514   C.ar      1 RES1   0.0000
     7 H7      -3.4749  -2.1622 -11.7872   H         1 RES1   0.0000
     8 C8      -2.5943  -1.6589 -13.6665   C.ar      1 RES1   0.0000
     9 C9      -1.5249  -3.3875 -14.8664   C.ar      1 RES1   0.0000
    10 H10     -0.9866  -3.7182 -15.7473   H         1 RES1   0.0000
    11 C11     -1.3894  -5.7298 -13.9806   C.2       1 RES1   0.0000
    12 F12     -2.9742  -0.3555 -13.5727   F         1 RES1   0.0000
    13 N13     -1.2406  -7.9410 -14.1570   N.am      1 RES1   0.0000
    14 C14     -1.5106  -9.4109 -14.3092   C.3       1 RES1   0.0000
    15 H15     -1.0897  -9.7351 -15.2598   H         1 RES1   0.0000
    16 C16      1.2391  -8.1596 -14.5825   C.3       1 RES1   0.0000
    17 H17      1.8659  -8.3586 -13.7158   H         1 RES1   0.0000
    18 H18      0.9609  -9.1137 -15.0254   H         1 RES1   0.0000
    19 H19      1.8306  -7.6075 -15.3098   H         1 RES1   0.0000
    20 C20     -0.0657  -6.0730 -14.1024   C.2       1 RES1   0.0000
    21 C21      1.1240  -5.1843 -14.0637   C.ar      1 RES1   0.0000
    22 O22     -3.3445  -7.1509 -13.9523   O.2       1 RES1   0.0000
    23 C23     -2.1400  -6.9421 -14.0140   C.2       1 RES1   0.0000
    24 N24      0.0498  -7.3983 -14.1986   N.pl3     1 RES1   0.0000
    25 C25     -1.0688 -11.6927 -13.3474   C.3       1 RES1   0.0000
    26 H26     -0.6081 -12.2225 -12.5149   H         1 RES1   0.0000
    27 H27     -0.6306 -12.0361 -14.2833   H         1 RES1   0.0000
    28 C28     -3.2429 -11.2245 -14.4456   C.3       1 RES1   0.0000
    29 H29     -2.8695 -11.5663 -15.4098   H         1 RES1   0.0000
    30 H30     -4.3117 -11.4227 -14.3793   H         1 RES1   0.0000
    31 C31     -3.0040  -9.7274 -14.3199   C.3       1 RES1   0.0000
    32 H32     -3.4694  -9.2204 -15.1639   H         1 RES1   0.0000
    33 H33     -3.4500  -9.3722 -13.3921   H         1 RES1   0.0000
    34 C34     -0.8263 -10.2013 -13.1933   C.3       1 RES1   0.0000
    35 H35     -1.2218  -9.8746 -12.2327   H         1 RES1   0.0000
    36 H36      0.2453 -10.0104 -13.2285   H         1 RES1   0.0000
    37 N37     -2.5391 -11.9647 -13.3574   N.4       1 RES1   1.0000
    38 H38     -2.9297 -11.6819 -12.4642   H         1 RES1   0.0000
    39 H39     -2.6863 -12.9600 -13.4911   H         1 RES1   0.0000
    40 N40      1.9023  -5.1714 -15.1572   N.ar      1 RES1   0.0000
    41 C41      2.5741  -3.6368 -13.0346   C.ar      1 RES1   0.0000
    42 H42      2.8344  -3.0190 -12.1815   H         1 RES1   0.0000
    43 N43      3.7858  -4.3937 -16.2088   N.pl3     1 RES1   0.0000
    44 H44      4.5908  -3.7674 -16.2149   H         1 RES1   0.0000
    45 C45      1.4342  -4.4110 -12.9546   C.ar      1 RES1   0.0000
    46 H46      0.8123  -4.4159 -12.0656   H         1 RES1   0.0000
    47 C47      2.9948  -4.3915 -15.1239   C.ar      1 RES1   0.0000
    48 N48      3.3772  -3.6066 -14.1060   N.ar      1 RES1   0.0000
    49 C49      3.5301  -5.1914 -17.4079   C.3       1 RES1   0.0000
    50 H50      2.9450  -6.0793 -17.1224   H         1 RES1   0.0000
    51 C51      4.8091  -5.6516 -18.0794   C.ar      1 RES1   0.0000
    52 C52      2.6927  -4.3430 -18.3577   C.3       1 RES1   0.0000
    53 H53      2.4445  -4.9017 -19.2577   H         1 RES1   0.0000
    54 H54      1.7634  -4.0336 -17.8840   H         1 RES1   0.0000
    55 H55      3.2360  -3.4481 -18.6540   H         1 RES1   0.0000
    56 C56      7.1662  -6.4841 -19.3087   C.ar      1 RES1   0.0000
    57 H57      8.0844  -6.8088 -19.7869   H         1 RES1   0.0000
    58 C58      5.9442  -4.8542 -18.0522   C.ar      1 RES1   0.0000
    59 H59      5.9131  -3.8948 -17.5464   H         1 RES1   0.0000
    60 C60      4.8742  -6.8731 -18.7356   C.ar      1 RES1   0.0000
    61 H61      3.9988  -7.5130 -18.7716   H         1 RES1   0.0000
    62 C62      6.0466  -7.2858 -19.3459   C.ar      1 RES1   0.0000
    63 H63      6.0830  -8.2433 -19.8545   H         1 RES1   0.0000
    64 C64      7.1158  -5.2687 -18.6623   C.ar      1 RES1   0.0000
    65 H65      7.9958  -4.6349 -18.6310   H         1 RES1   0.0000
@<TRIPOS>BOND
     1     1     5   ar
     2     1     6   ar
     3     1     2    1
     4     3     8   ar
     5     3     9   ar
     6     3     4    1
     7     5     9   ar
     8     5    11    1
     9     6     8   ar
    10     6     7    1
    11     8    12    1
    12     9    10    1
    13    11    20    2
    14    11    23    1
    15    13    14    1
    16    13    23   am
    17    13    24    1
    18    14    31    1
    19    14    34    1
    20    14    15    1
    21    16    24    1
    22    16    17    1
    23    16    18    1
    24    16    19    1
    25    20    21    1
    26    20    24    1
    27    21    40   ar
    28    21    45   ar
    29    22    23    2
    30    25    34    1
    31    25    37    1
    32    25    26    1
    33    25    27    1
    34    28    31    1
    35    28    37    1
    36    28    29    1
    37    28    30    1
    38    31    32    1
    39    31    33    1
    40    34    35    1
    41    34    36    1
    42    37    38    1
    43    37    39    1
    44    40    47   ar
    45    41    45   ar
    46    41    48   ar
    47    41    42    1
    48    43    47    1
    49    43    49    1
    50    43    44    1
    51    45    46    1
    52    47    48   ar
    53    49    51    1
    54    49    52    1
    55    49    50    1
    56    51    58   ar
    57    51    60   ar
    58    52    53    1
    59    52    54    1
    60    52    55    1
    61    56    62   ar
    62    56    64   ar
    63    56    57    1
    64    58    64   ar
    65    58    59    1
    66    60    62   ar
    67    60    61    1
    68    62    63    1
    69    64    65    1
@<TRIPOS>SUBSTRUCTURE
     1 RES1        1 GROUP             0 ****  ****    0  
@<TRIPOS>MOLECULE
LIGAND_00462
    65    69     1     0     0
SMALL
USER_CHARGES
****
Generated from the CSD

@<TRIPOS>ATOM
     1 C1       1.9040  -5.1327 -15.7178   C.ar      1 RES1   0.0000
     2 H2       1.9560  -6.0398 -16.3102   H         1 RES1   0.0000
     3 C3       1.7763  -2.7970 -14.2481   C.ar      1 RES1   0.0000
     4 H4       1.7288  -1.8738 -13.6800   H         1 RES1   0.0000
     5 C5       0.8630  -4.9675 -14.8091   C.ar      1 RES1   0.0000
     6 C6       2.8734  -4.1599 -15.8866   C.ar      1 RES1   0.0000
     7 H7       3.6865  -4.3019 -16.5905   H         1 RES1   0.0000
     8 C8       2.7812  -3.0146 -15.1469   C.ar      1 RES1   0.0000
     9 C9       0.8215  -3.7830 -14.0791   C.ar      1 RES1   0.0000
    10 H10      0.0279  -3.6251 -13.3577   H         1 RES1   0.0000
    11 C11     -0.1965  -6.0107 -14.6181   C.2       1 RES1   0.0000
    12 F12      3.7281  -2.0512 -15.3117   F         1 RES1   0.0000
    13 N13     -1.2435  -7.9615 -14.2249   N.am      1 RES1   0.0000
    14 C14     -1.4709  -9.4283 -14.4554   C.3       1 RES1   0.0000
    15 H15     -0.9838  -9.7030 -15.3899   H         1 RES1   0.0000
    16 C16     -3.4890  -7.0959 -14.0023   C.3       1 RES1   0.0000
    17 H17     -4.2233  -7.6104 -14.6187   H         1 RES1   0.0000
    18 H18     -3.4012  -7.6337 -13.0605   H         1 RES1   0.0000
    19 H19     -3.8643  -6.0973 -13.7891   H         1 RES1   0.0000
    20 C20     -1.5198  -5.8249 -14.8186   C.2       1 RES1   0.0000
    21 C21     -2.2427  -4.5739 -15.1638   C.ar      1 RES1   0.0000
    22 O22      1.0482  -8.0136 -14.0659   O.2       1 RES1   0.0000
    23 C23      0.0152  -7.3848 -14.2550   C.2       1 RES1   0.0000
    24 N24     -2.1961  -7.0276 -14.6843   N.3       1 RES1   0.0000
    25 C25     -1.0406 -11.7405 -13.5636   C.3       1 RES1   0.0000
    26 H26     -0.6218 -12.2968 -12.7262   H         1 RES1   0.0000
    27 H27     -0.5368 -12.0347 -14.4831   H         1 RES1   0.0000
    28 C28     -3.1509 -11.2675 -14.7781   C.3       1 RES1   0.0000
    29 H29     -2.7099 -11.5601 -15.7299   H         1 RES1   0.0000
    30 H30     -4.2171 -11.4889 -14.7886   H         1 RES1   0.0000
    31 C31     -2.9534  -9.7729 -14.5749   C.3       1 RES1   0.0000
    32 H32     -3.3757  -9.2390 -15.4249   H         1 RES1   0.0000
    33 H33     -3.4647  -9.4667 -13.6635   H         1 RES1   0.0000
    34 C34     -0.8411 -10.2528 -13.3320   C.3       1 RES1   0.0000
    35 H35     -1.3036  -9.9755 -12.3859   H         1 RES1   0.0000
    36 H36      0.2260 -10.0398 -13.2906   H         1 RES1   0.0000
    37 N37     -2.5009 -12.0402 -13.6790   N.4       1 RES1   1.0000
    38 H38     -2.9533 -11.8038 -12.8016   H         1 RES1   0.0000
    39 H39     -2.6175 -13.0315 -13.8633   H         1 RES1   0.0000
    40 N40     -3.1066  -4.1054 -14.2496   N.ar      1 RES1   0.0000
    41 C41     -2.7943  -2.7736 -16.5820   C.ar      1 RES1   0.0000
    42 H42     -2.6595  -2.2411 -17.5178   H         1 RES1   0.0000
    43 N43     -4.6653  -2.5314 -13.6568   N.pl3     1 RES1   0.0000
    44 H44     -5.1521  -1.6590 -13.8624   H         1 RES1   0.0000
    45 C45     -2.0537  -3.9194 -16.3721   C.ar      1 RES1   0.0000
    46 H46     -1.3589  -4.2911 -17.1180   H         1 RES1   0.0000
    47 C47     -3.7851  -2.9894 -14.5613   C.ar      1 RES1   0.0000
    48 N48     -3.6707  -2.2835 -15.6958   N.ar      1 RES1   0.0000
    49 C49     -4.9235  -3.1716 -12.3672   C.3       1 RES1   0.0000
    50 H50     -3.9909  -3.6367 -12.0116   H         1 RES1   0.0000
    51 C51     -5.9930  -4.2424 -12.4573   C.ar      1 RES1   0.0000
    52 C52     -5.3282  -2.0809 -11.3824   C.3       1 RES1   0.0000
    53 H53     -5.5018  -2.4990 -10.3930   H         1 RES1   0.0000
    54 H54     -4.5496  -1.3255 -11.2992   H         1 RES1   0.0000
    55 H55     -6.2430  -1.5900 -11.7076   H         1 RES1   0.0000
    56 C56     -7.9649  -6.2021 -12.6346   C.ar      1 RES1   0.0000
    57 H57     -8.7324  -6.9658 -12.7040   H         1 RES1   0.0000
    58 C58     -7.0123  -4.1414 -13.3931   C.ar      1 RES1   0.0000
    59 H59     -7.0419  -3.2888 -14.0634   H         1 RES1   0.0000
    60 C60     -5.9795  -5.3414 -11.6095   C.ar      1 RES1   0.0000
    61 H61     -5.1934  -5.4410 -10.8685   H         1 RES1   0.0000
    62 C62     -6.9602  -6.3149 -11.6990   C.ar      1 RES1   0.0000
    63 H63     -6.9366  -7.1687 -11.0301   H         1 RES1   0.0000
    64 C64     -7.9916  -5.1162 -13.4817   C.ar      1 RES1   0.0000
    65 H65     -8.7813  -5.0242 -14.2199   H         1 RES1   0.0000
@<TRIPOS>BOND
     1     1     5   ar
     2     1     6   ar
     3     1     2    1
     4     3     8   ar
     5     3     9   ar
     6     3     4    1
     7     5     9   ar
     8     5    11    1
     9     6     8   ar
    10     6     7    1
    11     8    12    1
    12     9    10    1
    13    11    20    2
    14    11    23    1
    15    13    14    1
    16    13    23   am
    17    13    24    1
    18    14    31    1
    19    14    34    1
    20    14    15    1
    21    16    24    1
    22    16    17    1
    23    16    18    1
    24    16    19    1
    25    20    21    1
    26    20    24    1
    27    21    40   ar
    28    21    45   ar
    29    22    23    2
    30    25    34    1
    31    25    37    1
    32    25    26    1
    33    25    27    1
    34    28    31    1
    35    28    37    1
    36    28    29    1
    37    28    30    1
    38    31    32    1
    39    31    33    1
    40    34    35    1
    41    34    36    1
    42    37    38    1
    43    37    39    1
    44    40    47   ar
    45    41    45   ar
    46    41    48   ar
    47    41    42    1
    48    43    47    1
    49    43    49    1
    50    43    44    1
    51    45    46    1
    52    47    48   ar
    53    49    51    1
    54    49    52    1
    55    49    50    1
    56    51    58   ar
    57    51    60   ar
    58    52    53    1
    59    52    54    1
    60    52    55    1
    61    56    62   ar
    62    56    64   ar
    63    56    57    1
    64    58    64   ar
    65    58    59    1
    66    60    62   ar
    67    60    61    1
    68    62    63    1
    69    64    65    1
@<TRIPOS>SUBSTRUCTURE
     1 RES1        1 GROUP             0 ****  ****    0  
@<TRIPOS>MOLECULE
LIGAND_00463
    65    69     1     0     0
SMALL
USER_CHARGES
****
Generated from the CSD

@<TRIPOS>ATOM
     1 C1       1.1178  -4.3519 -15.9804   C.ar      1 RES1   0.0000
     2 H2       0.5415  -4.6443 -16.8515   H         1 RES1   0.0000
     3 C3       2.5766  -3.5625 -13.7712   C.ar      1 RES1   0.0000
     4 H4       3.1486  -3.2417 -12.9068   H         1 RES1   0.0000
     5 C5       0.8577  -4.9552 -14.7536   C.ar      1 RES1   0.0000
     6 C6       2.0944  -3.3806 -16.1121   C.ar      1 RES1   0.0000
     7 H7       2.2966  -2.9228 -17.0747   H         1 RES1   0.0000
     8 C8       2.7972  -3.0097 -15.0004   C.ar      1 RES1   0.0000
     9 C9       1.6072  -4.5418 -13.6558   C.ar      1 RES1   0.0000
    10 H10      1.4348  -4.9963 -12.6869   H         1 RES1   0.0000
    11 C11     -0.1996  -6.0061 -14.5946   C.2       1 RES1   0.0000
    12 F12      3.7554  -2.0511 -15.1215   F         1 RES1   0.0000
    13 N13     -1.2434  -7.9665 -14.2434   N.am      1 RES1   0.0000
    14 C14     -1.4584  -9.4319 -14.4945   C.3       1 RES1   0.0000
    15 H15     -0.9522  -9.6934 -15.4226   H         1 RES1   0.0000
    16 C16     -3.4974  -7.1153 -14.0546   C.3       1 RES1   0.0000
    17 H17     -4.2164  -7.6283 -14.6899   H         1 RES1   0.0000
    18 H18     -3.4245  -7.6614 -13.1164   H         1 RES1   0.0000
    19 H19     -3.8831  -6.1210 -13.8395   H         1 RES1   0.0000
    20 C20     -1.5198  -5.8249 -14.8186   C.2       1 RES1   0.0000
    21 C21     -2.2427  -4.5739 -15.1638   C.ar      1 RES1   0.0000
    22 O22      1.0451  -8.0085 -14.0408   O.2       1 RES1   0.0000
    23 C23      0.0125  -7.3830 -14.2428   C.2       1 RES1   0.0000
    24 N24     -2.1920  -7.0325 -14.7107   N.3       1 RES1   0.0000
    25 C25     -1.0323 -11.7517 -13.6205   C.3       1 RES1   0.0000
    26 H26     -0.6264 -12.3151 -12.7816   H         1 RES1   0.0000
    27 H27     -0.5096 -12.0328 -14.5335   H         1 RES1   0.0000
    28 C28     -3.1218 -11.2761 -14.8695   C.3       1 RES1   0.0000
    29 H29     -2.6614 -11.5557 -15.8159   H         1 RES1   0.0000
    30 H30     -4.1864 -11.5030 -14.9027   H         1 RES1   0.0000
    31 C31     -2.9364  -9.7829 -14.6459   C.3       1 RES1   0.0000
    32 H32     -3.3455  -9.2417 -15.4978   H         1 RES1   0.0000
    33 H33     -3.4666  -9.4897 -13.7410   H         1 RES1   0.0000
    34 C34     -0.8454 -10.2656 -13.3687   C.3       1 RES1   0.0000
    35 H35     -1.3272 -10.0014 -12.4284   H         1 RES1   0.0000
    36 H36      0.2196 -10.0475 -13.3047   H         1 RES1   0.0000
    37 N37     -2.4885 -12.0577 -13.7669   N.4       1 RES1   1.0000
    38 H38     -2.9587 -11.8336 -12.8957   H         1 RES1   0.0000
    39 H39     -2.5961 -13.0475 -13.9645   H         1 RES1   0.0000
    40 N40     -3.1066  -4.1054 -14.2496   N.ar      1 RES1   0.0000
    41 C41     -2.7943  -2.7736 -16.5820   C.ar      1 RES1   0.0000
    42 H42     -2.6595  -2.2411 -17.5178   H         1 RES1   0.0000
    43 N43     -4.6653  -2.5314 -13.6568   N.pl3     1 RES1   0.0000
    44 H44     -5.1521  -1.6590 -13.8624   H         1 RES1   0.0000
    45 C45     -2.0537  -3.9194 -16.3721   C.ar      1 RES1   0.0000
    46 H46     -1.3589  -4.2911 -17.1180   H         1 RES1   0.0000
    47 C47     -3.7851  -2.9894 -14.5613   C.ar      1 RES1   0.0000
    48 N48     -3.6707  -2.2835 -15.6958   N.ar      1 RES1   0.0000
    49 C49     -4.9235  -3.1716 -12.3672   C.3       1 RES1   0.0000
    50 H50     -3.9909  -3.6367 -12.0116   H         1 RES1   0.0000
    51 C51     -5.9930  -4.2424 -12.4573   C.ar      1 RES1   0.0000
    52 C52     -5.3282  -2.0809 -11.3824   C.3       1 RES1   0.0000
    53 H53     -5.5018  -2.4990 -10.3930   H         1 RES1   0.0000
    54 H54     -4.5496  -1.3255 -11.2992   H         1 RES1   0.0000
    55 H55     -6.2430  -1.5900 -11.7076   H         1 RES1   0.0000
    56 C56     -7.9649  -6.2021 -12.6346   C.ar      1 RES1   0.0000
    57 H57     -8.7324  -6.9658 -12.7040   H         1 RES1   0.0000
    58 C58     -7.0123  -4.1414 -13.3931   C.ar      1 RES1   0.0000
    59 H59     -7.0419  -3.2888 -14.0634   H         1 RES1   0.0000
    60 C60     -5.9795  -5.3414 -11.6095   C.ar      1 RES1   0.0000
    61 H61     -5.1934  -5.4410 -10.8685   H         1 RES1   0.0000
    62 C62     -6.9602  -6.3149 -11.6990   C.ar      1 RES1   0.0000
    63 H63     -6.9366  -7.1687 -11.0301   H         1 RES1   0.0000
    64 C64     -7.9916  -5.1162 -13.4817   C.ar      1 RES1   0.0000
    65 H65     -8.7813  -5.0242 -14.2199   H         1 RES1   0.0000
@<TRIPOS>BOND
     1     1     5   ar
     2     1     6   ar
     3     1     2    1
     4     3     8   ar
     5     3     9   ar
     6     3     4    1
     7     5     9   ar
     8     5    11    1
     9     6     8   ar
    10     6     7    1
    11     8    12    1
    12     9    10    1
    13    11    20    2
    14    11    23    1
    15    13    14    1
    16    13    23   am
    17    13    24    1
    18    14    31    1
    19    14    34    1
    20    14    15    1
    21    16    24    1
    22    16    17    1
    23    16    18    1
    24    16    19    1
    25    20    21    1
    26    20    24    1
    27    21    40   ar
    28    21    45   ar
    29    22    23    2
    30    25    34    1
    31    25    37    1
    32    25    26    1
    33    25    27    1
    34    28    31    1
    35    28    37    1
    36    28    29    1
    37    28    30    1
    38    31    32    1
    39    31    33    1
    40    34    35    1
    41    34    36    1
    42    37    38    1
    43    37    39    1
    44    40    47   ar
    45    41    45   ar
    46    41    48   ar
    47    41    42    1
    48    43    47    1
    49    43    49    1
    50    43    44    1
    51    45    46    1
    52    47    48   ar
    53    49    51    1
    54    49    52    1
    55    49    50    1
    56    51    58   ar
    57    51    60   ar
    58    52    53    1
    59    52    54    1
    60    52    55    1
    61    56    62   ar
    62    56    64   ar
    63    56    57    1
    64    58    64   ar
    65    58    59    1
    66    60    62   ar
    67    60    61    1
    68    62    63    1
    69    64    65    1
@<TRIPOS>SUBSTRUCTURE
     1 RES1        1 GROUP             0 ****  ****    0  
@<TRIPOS>MOLECULE
LIGAND_00464
    65    69     1     0     0
SMALL
USER_CHARGES
****
Generated from the CSD

@<TRIPOS>ATOM
     1 C1      -0.0189  -3.7204 -15.3545   C.ar      1 RES1   0.0000
     2 H2      -1.0121  -3.8572 -15.7683   H         1 RES1   0.0000
     3 C3       2.4986  -3.3296 -14.2862   C.ar      1 RES1   0.0000
     4 H4       3.4848  -3.1653 -13.8646   H         1 RES1   0.0000
     5 C5       0.5126  -4.6946 -14.5146   C.ar      1 RES1   0.0000
     6 C6       0.6918  -2.5757 -15.6692   C.ar      1 RES1   0.0000
     7 H7       0.2730  -1.8264 -16.3325   H         1 RES1   0.0000
     8 C8       1.9334  -2.4101 -15.1229   C.ar      1 RES1   0.0000
     9 C9       1.7835  -4.4756 -13.9905   C.ar      1 RES1   0.0000
    10 H10      2.2299  -5.2177 -13.3384   H         1 RES1   0.0000
    11 C11     -0.2467  -5.9380 -14.1617   C.2       1 RES1   0.0000
    12 F12      2.6358  -1.2840 -15.4237   F         1 RES1   0.0000
    13 N13     -1.2406  -7.9410 -14.1570   N.am      1 RES1   0.0000
    14 C14     -1.5106  -9.4109 -14.3092   C.3       1 RES1   0.0000
    15 H15     -0.9491  -9.7701 -15.1704   H         1 RES1   0.0000
    16 C16     -2.9634  -7.4981 -12.4712   C.3       1 RES1   0.0000
    17 H17     -3.2162  -6.7695 -11.7036   H         1 RES1   0.0000
    18 H18     -3.7034  -7.4237 -13.2653   H         1 RES1   0.0000
    19 H19     -3.0343  -8.4914 -12.0331   H         1 RES1   0.0000
    20 C20     -1.0688  -6.0097 -13.0848   C.2       1 RES1   0.0000
    21 C21     -1.4087  -4.9383 -12.1137   C.ar      1 RES1   0.0000
    22 O22      0.2750  -7.5989 -15.8623   O.2       1 RES1   0.0000
    23 C23     -0.3156  -7.1911 -14.8707   C.2       1 RES1   0.0000
    24 N24     -1.6169  -7.2574 -12.9912   N.3       1 RES1   0.0000
    25 C25     -1.2720 -11.6681 -13.2251   C.3       1 RES1   0.0000
    26 H26     -0.9607 -12.1785 -12.3149   H         1 RES1   0.0000
    27 H27     -0.6961 -12.0463 -14.0685   H         1 RES1   0.0000
    28 C28     -3.2328 -11.2030 -14.6711   C.3       1 RES1   0.0000
    29 H29     -2.7164 -11.5797 -15.5528   H         1 RES1   0.0000
    30 H30     -4.3020 -11.3838 -14.7718   H         1 RES1   0.0000
    31 C31     -2.9887  -9.7063 -14.5508   C.3       1 RES1   0.0000
    32 H32     -3.3033  -9.2190 -15.4725   H         1 RES1   0.0000
    33 H33     -3.5708  -9.3164 -13.7171   H         1 RES1   0.0000
    34 C34     -1.0289 -10.1763 -13.0761   C.3       1 RES1   0.0000
    35 H35     -1.5670  -9.8145 -12.2011   H         1 RES1   0.0000
    36 H36      0.0378 -10.0017 -12.9440   H         1 RES1   0.0000
    37 N37     -2.7265 -11.9193 -13.4635   N.4       1 RES1   1.0000
    38 H38     -3.2497 -11.6036 -12.6531   H         1 RES1   0.0000
    39 H39     -2.8693 -12.9161 -13.5911   H         1 RES1   0.0000
    40 N40     -2.4741  -4.1759 -12.4060   N.ar      1 RES1   0.0000
    41 C41     -1.0710  -3.6820 -10.1479   C.ar      1 RES1   0.0000
    42 H42     -0.5068  -3.4933  -9.2404   H         1 RES1   0.0000
    43 N43     -3.8280  -2.4106 -11.8503   N.pl3     1 RES1   0.0000
    44 H44     -4.0835  -1.6745 -11.1921   H         1 RES1   0.0000
    45 C45     -0.6634  -4.7173 -10.9648   C.ar      1 RES1   0.0000
    46 H46      0.2002  -5.3270 -10.7208   H         1 RES1   0.0000
    47 C47     -2.7755  -3.1875 -11.5485   C.ar      1 RES1   0.0000
    48 N48     -2.1231  -2.8969 -10.4135   N.ar      1 RES1   0.0000
    49 C49     -4.6696  -2.5936 -13.0326   C.3       1 RES1   0.0000
    50 H50     -4.0278  -2.5830 -13.9272   H         1 RES1   0.0000
    51 C51     -5.7127  -1.5026 -13.1740   C.ar      1 RES1   0.0000
    52 C52     -5.3280  -3.9640 -12.9238   C.3       1 RES1   0.0000
    53 H53     -6.3087  -3.9597 -13.3949   H         1 RES1   0.0000
    54 H54     -4.7217  -4.7250 -13.4105   H         1 RES1   0.0000
    55 H55     -5.4547  -4.2476 -11.8811   H         1 RES1   0.0000
    56 C56     -7.6353   0.4983 -13.4201   C.ar      1 RES1   0.0000
    57 H57     -8.3836   1.2781 -13.5157   H         1 RES1   0.0000
    58 C58     -6.6590  -1.3008 -12.1796   C.ar      1 RES1   0.0000
    59 H59     -6.6501  -1.9303 -11.2959   H         1 RES1   0.0000
    60 C60     -5.7475  -0.6859 -14.2960   C.ar      1 RES1   0.0000
    61 H61     -5.0189  -0.8259 -15.0875   H         1 RES1   0.0000
    62 C62     -6.7035   0.3085 -14.4167   C.ar      1 RES1   0.0000
    63 H63     -6.7182   0.9397 -15.2990   H         1 RES1   0.0000
    64 C64     -7.6137  -0.3056 -12.3017   C.ar      1 RES1   0.0000
    65 H65     -8.3460  -0.1588 -11.5148   H         1 RES1   0.0000
@<TRIPOS>BOND
     1     1     5   ar
     2     1     6   ar
     3     1     2    1
     4     3     8   ar
     5     3     9   ar
     6     3     4    1
     7     5     9   ar
     8     5    11    1
     9     6     8   ar
    10     6     7    1
    11     8    12    1
    12     9    10    1
    13    11    20    2
    14    11    23    1
    15    13    14    1
    16    13    23   am
    17    13    24    1
    18    14    31    1
    19    14    34    1
    20    14    15    1
    21    16    24    1
    22    16    17    1
    23    16    18    1
    24    16    19    1
    25    20    21    1
    26    20    24    1
    27    21    40   ar
    28    21    45   ar
    29    22    23    2
    30    25    34    1
    31    25    37    1
    32    25    26    1
    33    25    27    1
    34    28    31    1
    35    28    37    1
    36    28    29    1
    37    28    30    1
    38    31    32    1
    39    31    33    1
    40    34    35    1
    41    34    36    1
    42    37    38    1
    43    37    39    1
    44    40    47   ar
    45    41    45   ar
    46    41    48   ar
    47    41    42    1
    48    43    47    1
    49    43    49    1
    50    43    44    1
    51    45    46    1
    52    47    48   ar
    53    49    51    1
    54    49    52    1
    55    49    50    1
    56    51    58   ar
    57    51    60   ar
    58    52    53    1
    59    52    54    1
    60    52    55    1
    61    56    62   ar
    62    56    64   ar
    63    56    57    1
    64    58    64   ar
    65    58    59    1
    66    60    62   ar
    67    60    61    1
    68    62    63    1
    69    64    65    1
@<TRIPOS>SUBSTRUCTURE
     1 RES1        1 GROUP             0 ****  ****    0  
@<TRIPOS>MOLECULE
LIGAND_00465
    65    69     1     0     0
SMALL
USER_CHARGES
****
Generated from the CSD

@<TRIPOS>ATOM
     1 C1      -0.0189  -3.7204 -15.3545   C.ar      1 RES1   0.0000
     2 H2      -1.0121  -3.8572 -15.7683   H         1 RES1   0.0000
     3 C3       2.4986  -3.3296 -14.2862   C.ar      1 RES1   0.0000
     4 H4       3.4848  -3.1653 -13.8646   H         1 RES1   0.0000
     5 C5       0.5126  -4.6946 -14.5146   C.ar      1 RES1   0.0000
     6 C6       0.6918  -2.5757 -15.6692   C.ar      1 RES1   0.0000
     7 H7       0.2730  -1.8264 -16.3325   H         1 RES1   0.0000
     8 C8       1.9334  -2.4101 -15.1229   C.ar      1 RES1   0.0000
     9 C9       1.7835  -4.4756 -13.9905   C.ar      1 RES1   0.0000
    10 H10      2.2299  -5.2177 -13.3384   H         1 RES1   0.0000
    11 C11     -0.2467  -5.9380 -14.1617   C.2       1 RES1   0.0000
    12 F12      2.6358  -1.2840 -15.4237   F         1 RES1   0.0000
    13 N13     -1.2406  -7.9410 -14.1570   N.am      1 RES1   0.0000
    14 C14     -1.5106  -9.4109 -14.3092   C.3       1 RES1   0.0000
    15 H15     -0.9491  -9.7701 -15.1704   H         1 RES1   0.0000
    16 C16     -2.9634  -7.4981 -12.4712   C.3       1 RES1   0.0000
    17 H17     -3.2162  -6.7695 -11.7036   H         1 RES1   0.0000
    18 H18     -3.7034  -7.4237 -13.2653   H         1 RES1   0.0000
    19 H19     -3.0343  -8.4914 -12.0331   H         1 RES1   0.0000
    20 C20     -1.0688  -6.0097 -13.0848   C.2       1 RES1   0.0000
    21 C21     -1.4087  -4.9383 -12.1137   C.ar      1 RES1   0.0000
    22 O22      0.2750  -7.5989 -15.8623   O.2       1 RES1   0.0000
    23 C23     -0.3156  -7.1911 -14.8707   C.2       1 RES1   0.0000
    24 N24     -1.6169  -7.2574 -12.9912   N.3       1 RES1   0.0000
    25 C25     -1.2720 -11.6681 -13.2251   C.3       1 RES1   0.0000
    26 H26     -0.9607 -12.1785 -12.3149   H         1 RES1   0.0000
    27 H27     -0.6961 -12.0463 -14.0685   H         1 RES1   0.0000
    28 C28     -3.2328 -11.2030 -14.6711   C.3       1 RES1   0.0000
    29 H29     -2.7164 -11.5797 -15.5528   H         1 RES1   0.0000
    30 H30     -4.3020 -11.3838 -14.7718   H         1 RES1   0.0000
    31 C31     -2.9887  -9.7063 -14.5508   C.3       1 RES1   0.0000
    32 H32     -3.3033  -9.2190 -15.4725   H         1 RES1   0.0000
    33 H33     -3.5708  -9.3164 -13.7171   H         1 RES1   0.0000
    34 C34     -1.0289 -10.1763 -13.0761   C.3       1 RES1   0.0000
    35 H35     -1.5670  -9.8145 -12.2011   H         1 RES1   0.0000
    36 H36      0.0378 -10.0017 -12.9440   H         1 RES1   0.0000
    37 N37     -2.7265 -11.9193 -13.4635   N.4       1 RES1   1.0000
    38 H38     -3.2497 -11.6036 -12.6531   H         1 RES1   0.0000
    39 H39     -2.8693 -12.9161 -13.5911   H         1 RES1   0.0000
    40 N40     -0.6191  -4.8314 -11.0335   N.ar      1 RES1   0.0000
    41 C41     -2.7138  -3.1449 -11.3153   C.ar      1 RES1   0.0000
    42 H42     -3.5526  -2.4677 -11.4379   H         1 RES1   0.0000
    43 N43     -0.1558  -3.7890  -9.0443   N.pl3     1 RES1   0.0000
    44 H44     -0.3669  -3.0541  -8.3693   H         1 RES1   0.0000
    45 C45     -2.4926  -4.0918 -12.2950   C.ar      1 RES1   0.0000
    46 H46     -3.1376  -4.1714 -13.1639   H         1 RES1   0.0000
    47 C47     -0.9320  -3.8832 -10.1357   C.ar      1 RES1   0.0000
    48 N48     -1.9515  -3.0164 -10.2217   N.ar      1 RES1   0.0000
    49 C49      1.0118  -4.6337  -8.7935   C.3       1 RES1   0.0000
    50 H50      0.7013  -5.6887  -8.8456   H         1 RES1   0.0000
    51 C51      1.6279  -4.3785  -7.4319   C.ar      1 RES1   0.0000
    52 C52      2.0210  -4.3692  -9.9047   C.3       1 RES1   0.0000
    53 H53      3.0386  -4.4897  -9.5389   H         1 RES1   0.0000
    54 H54      1.8750  -5.0592 -10.7331   H         1 RES1   0.0000
    55 H55      1.9161  -3.3556 -10.2857   H         1 RES1   0.0000
    56 C56      2.7624  -3.8949  -4.9341   C.ar      1 RES1   0.0000
    57 H57      3.2036  -3.7065  -3.9609   H         1 RES1   0.0000
    58 C58      2.1110  -3.1202  -7.1030   C.ar      1 RES1   0.0000
    59 H59      2.0465  -2.3152  -7.8276   H         1 RES1   0.0000
    60 C60      1.7251  -5.3920  -6.4884   C.ar      1 RES1   0.0000
    61 H61      1.3558  -6.3847  -6.7235   H         1 RES1   0.0000
    62 C62      2.2889  -5.1501  -5.2471   C.ar      1 RES1   0.0000
    63 H63      2.3577  -5.9517  -4.5193   H         1 RES1   0.0000
    64 C64      2.6738  -2.8799  -5.8611   C.ar      1 RES1   0.0000
    65 H65      3.0456  -1.8901  -5.6179   H         1 RES1   0.0000
@<TRIPOS>BOND
     1     1     5   ar
     2     1     6   ar
     3     1     2    1
     4     3     8   ar
     5     3     9   ar
     6     3     4    1
     7     5     9   ar
     8     5    11    1
     9     6     8   ar
    10     6     7    1
    11     8    12    1
    12     9    10    1
    13    11    20    2
    14    11    23    1
    15    13    14    1
    16    13    23   am
    17    13    24    1
    18    14    31    1
    19    14    34    1
    20    14    15    1
    21    16    24    1
    22    16    17    1
    23    16    18    1
    24    16    19    1
    25    20    21    1
    26    20    24    1
    27    21    40   ar
    28    21    45   ar
    29    22    23    2
    30    25    34    1
    31    25    37    1
    32    25    26    1
    33    25    27    1
    34    28    31    1
    35    28    37    1
    36    28    29    1
    37    28    30    1
    38    31    32    1
    39    31    33    1
    40    34    35    1
    41    34    36    1
    42    37    38    1
    43    37    39    1
    44    40    47   ar
    45    41    45   ar
    46    41    48   ar
    47    41    42    1
    48    43    47    1
    49    43    49    1
    50    43    44    1
    51    45    46    1
    52    47    48   ar
    53    49    51    1
    54    49    52    1
    55    49    50    1
    56    51    58   ar
    57    51    60   ar
    58    52    53    1
    59    52    54    1
    60    52    55    1
    61    56    62   ar
    62    56    64   ar
    63    56    57    1
    64    58    64   ar
    65    58    59    1
    66    60    62   ar
    67    60    61    1
    68    62    63    1
    69    64    65    1
@<TRIPOS>SUBSTRUCTURE
     1 RES1        1 GROUP             0 ****  ****    0  
@<TRIPOS>MOLECULE
LIGAND_00466
    65    69     1     0     0
SMALL
USER_CHARGES
****
Generated from the CSD

@<TRIPOS>ATOM
     1 C1      -0.4201  -4.1486 -16.7354   C.ar      1 RES1   0.0000
     2 H2      -1.3920  -4.4351 -17.1223   H         1 RES1   0.0000
     3 C3       2.0415  -3.3742 -15.7492   C.ar      1 RES1   0.0000
     4 H4       3.0054  -3.0593 -15.3633   H         1 RES1   0.0000
     5 C5       0.0983  -4.8126 -15.6276   C.ar      1 RES1   0.0000
     6 C6       0.2766  -3.1244 -17.3518   C.ar      1 RES1   0.0000
     7 H7      -0.1314  -2.6191 -18.2208   H         1 RES1   0.0000
     8 C8       1.4904  -2.7626 -16.8389   C.ar      1 RES1   0.0000
     9 C9       1.3411  -4.4054 -15.1506   C.ar      1 RES1   0.0000
    10 H10      1.7769  -4.9061 -14.2936   H         1 RES1   0.0000
    11 C11     -0.6465  -5.9213 -14.9469   C.2       1 RES1   0.0000
    12 F12      2.1788  -1.7524 -17.4368   F         1 RES1   0.0000
    13 N13     -1.2406  -7.9410 -14.1570   N.am      1 RES1   0.0000
    14 C14     -1.5106  -9.4109 -14.3092   C.3       1 RES1   0.0000
    15 H15     -1.0406  -9.7469 -15.2323   H         1 RES1   0.0000
    16 C16     -3.0175  -7.2154 -12.6884   C.3       1 RES1   0.0000
    17 H17     -4.0884  -7.3232 -12.8476   H         1 RES1   0.0000
    18 H18     -2.6625  -8.1003 -12.1641   H         1 RES1   0.0000
    19 H19     -2.8547  -6.3524 -12.0463   H         1 RES1   0.0000
    20 C20     -1.8662  -5.8070 -14.3768   C.2       1 RES1   0.0000
    21 C21     -2.6990  -4.5904 -14.1952   C.ar      1 RES1   0.0000
    22 O22      0.7594  -7.8641 -15.2858   O.2       1 RES1   0.0000
    23 C23     -0.2262  -7.2912 -14.8399   C.2       1 RES1   0.0000
    24 N24     -2.3177  -7.0507 -13.9630   N.3       1 RES1   0.0000
    25 C25     -1.1352 -11.6852 -13.3024   C.3       1 RES1   0.0000
    26 H26     -0.7235 -12.2090 -12.4410   H         1 RES1   0.0000
    27 H27     -0.6488 -12.0404 -14.2097   H         1 RES1   0.0000
    28 C28     -3.2436 -11.2165 -14.5217   C.3       1 RES1   0.0000
    29 H29     -2.8205 -11.5701 -15.4608   H         1 RES1   0.0000
    30 H30     -4.3156 -11.4082 -14.5117   H         1 RES1   0.0000
    31 C31     -3.0030  -9.7195 -14.3980   C.3       1 RES1   0.0000
    32 H32     -3.4190  -9.2186 -15.2709   H         1 RES1   0.0000
    33 H33     -3.4967  -9.3525 -13.4993   H         1 RES1   0.0000
    34 C34     -0.8925 -10.1937 -13.1500   C.3       1 RES1   0.0000
    35 H35     -1.3377  -9.8551 -12.2156   H         1 RES1   0.0000
    36 H36      0.1805 -10.0088 -13.1288   H         1 RES1   0.0000
    37 N37     -2.6043 -11.9494 -13.3896   N.4       1 RES1   1.0000
    38 H38     -3.0412 -11.6555 -12.5219   H         1 RES1   0.0000
    39 H39     -2.7499 -12.9452 -13.5214   H         1 RES1   0.0000
    40 N40     -3.9081  -4.5953 -14.7781   N.ar      1 RES1   0.0000
    41 C41     -3.1167  -2.4156 -13.3874   C.ar      1 RES1   0.0000
    42 H42     -2.7950  -1.5467 -12.8228   H         1 RES1   0.0000
    43 N43     -5.8603  -3.4859 -15.2430   N.pl3     1 RES1   0.0000
    44 H44     -6.4591  -2.6713 -15.1081   H         1 RES1   0.0000
    45 C45     -2.2567  -3.4919 -13.4728   C.ar      1 RES1   0.0000
    46 H46     -1.2805  -3.4778 -12.9994   H         1 RES1   0.0000
    47 C47     -4.6594  -3.4907 -14.6426   C.ar      1 RES1   0.0000
    48 N48     -4.3254  -2.3837 -13.9635   N.ar      1 RES1   0.0000
    49 C49     -6.3895  -4.6020 -16.0265   C.3       1 RES1   0.0000
    50 H50     -6.0159  -5.5437 -15.5954   H         1 RES1   0.0000
    51 C51     -5.9694  -4.5370 -17.4817   C.ar      1 RES1   0.0000
    52 C52     -7.9081  -4.5781 -15.8978   C.3       1 RES1   0.0000
    53 H53     -8.3546  -5.4106 -16.4377   H         1 RES1   0.0000
    54 H54     -8.2099  -4.6499 -14.8550   H         1 RES1   0.0000
    55 H55     -8.3137  -3.6543 -16.3049   H         1 RES1   0.0000
    56 C56     -5.2043  -4.4039 -20.1570   C.ar      1 RES1   0.0000
    57 H57     -4.9057  -4.3519 -21.1988   H         1 RES1   0.0000
    58 C58     -6.3183  -3.4475 -18.2667   C.ar      1 RES1   0.0000
    59 H59     -6.8964  -2.6381 -17.8334   H         1 RES1   0.0000
    60 C60     -5.2322  -5.5608 -18.0608   C.ar      1 RES1   0.0000
    61 H61     -4.9492  -6.4238 -17.4672   H         1 RES1   0.0000
    62 C62     -4.8523  -5.4931 -19.3906   C.ar      1 RES1   0.0000
    63 H63     -4.2757  -6.3005 -19.8297   H         1 RES1   0.0000
    64 C64     -5.9369  -3.3812 -19.5960   C.ar      1 RES1   0.0000
    65 H65     -6.2158  -2.5218 -20.1967   H         1 RES1   0.0000
@<TRIPOS>BOND
     1     1     5   ar
     2     1     6   ar
     3     1     2    1
     4     3     8   ar
     5     3     9   ar
     6     3     4    1
     7     5     9   ar
     8     5    11    1
     9     6     8   ar
    10     6     7    1
    11     8    12    1
    12     9    10    1
    13    11    20    2
    14    11    23    1
    15    13    14    1
    16    13    23   am
    17    13    24    1
    18    14    31    1
    19    14    34    1
    20    14    15    1
    21    16    24    1
    22    16    17    1
    23    16    18    1
    24    16    19    1
    25    20    21    1
    26    20    24    1
    27    21    40   ar
    28    21    45   ar
    29    22    23    2
    30    25    34    1
    31    25    37    1
    32    25    26    1
    33    25    27    1
    34    28    31    1
    35    28    37    1
    36    28    29    1
    37    28    30    1
    38    31    32    1
    39    31    33    1
    40    34    35    1
    41    34    36    1
    42    37    38    1
    43    37    39    1
    44    40    47   ar
    45    41    45   ar
    46    41    48   ar
    47    41    42    1
    48    43    47    1
    49    43    49    1
    50    43    44    1
    51    45    46    1
    52    47    48   ar
    53    49    51    1
    54    49    52    1
    55    49    50    1
    56    51    58   ar
    57    51    60   ar
    58    52    53    1
    59    52    54    1
    60    52    55    1
    61    56    62   ar
    62    56    64   ar
    63    56    57    1
    64    58    64   ar
    65    58    59    1
    66    60    62   ar
    67    60    61    1
    68    62    63    1
    69    64    65    1
@<TRIPOS>SUBSTRUCTURE
     1 RES1        1 GROUP             0 ****  ****    0  
@<TRIPOS>MOLECULE
LIGAND_00467
    65    69     1     0     0
SMALL
USER_CHARGES
****
Generated from the CSD

@<TRIPOS>ATOM
     1 C1       1.9040  -5.1327 -15.7178   C.ar      1 RES1   0.0000
     2 H2       1.9560  -6.0398 -16.3102   H         1 RES1   0.0000
     3 C3       1.7763  -2.7970 -14.2481   C.ar      1 RES1   0.0000
     4 H4       1.7288  -1.8738 -13.6800   H         1 RES1   0.0000
     5 C5       0.8630  -4.9675 -14.8091   C.ar      1 RES1   0.0000
     6 C6       2.8734  -4.1599 -15.8866   C.ar      1 RES1   0.0000
     7 H7       3.6865  -4.3019 -16.5905   H         1 RES1   0.0000
     8 C8       2.7812  -3.0146 -15.1469   C.ar      1 RES1   0.0000
     9 C9       0.8215  -3.7830 -14.0791   C.ar      1 RES1   0.0000
    10 H10      0.0279  -3.6251 -13.3577   H         1 RES1   0.0000
    11 C11     -0.1965  -6.0107 -14.6181   C.2       1 RES1   0.0000
    12 F12      3.7281  -2.0512 -15.3117   F         1 RES1   0.0000
    13 N13     -1.2435  -7.9615 -14.2249   N.am      1 RES1   0.0000
    14 C14     -1.4709  -9.4283 -14.4554   C.3       1 RES1   0.0000
    15 H15     -0.9838  -9.7030 -15.3899   H         1 RES1   0.0000
    16 C16     -3.4890  -7.0959 -14.0023   C.3       1 RES1   0.0000
    17 H17     -4.2233  -7.6104 -14.6187   H         1 RES1   0.0000
    18 H18     -3.4012  -7.6337 -13.0605   H         1 RES1   0.0000
    19 H19     -3.8643  -6.0973 -13.7891   H         1 RES1   0.0000
    20 C20     -1.5198  -5.8249 -14.8186   C.2       1 RES1   0.0000
    21 C21     -2.2427  -4.5739 -15.1638   C.ar      1 RES1   0.0000
    22 O22      1.0482  -8.0136 -14.0659   O.2       1 RES1   0.0000
    23 C23      0.0152  -7.3848 -14.2550   C.2       1 RES1   0.0000
    24 N24     -2.1961  -7.0276 -14.6843   N.3       1 RES1   0.0000
    25 C25     -1.0406 -11.7406 -13.5636   C.3       1 RES1   0.0000
    26 H26     -0.6218 -12.2968 -12.7262   H         1 RES1   0.0000
    27 H27     -0.5368 -12.0347 -14.4831   H         1 RES1   0.0000
    28 C28     -3.1509 -11.2675 -14.7781   C.3       1 RES1   0.0000
    29 H29     -2.7099 -11.5601 -15.7299   H         1 RES1   0.0000
    30 H30     -4.2171 -11.4889 -14.7886   H         1 RES1   0.0000
    31 C31     -2.9534  -9.7729 -14.5749   C.3       1 RES1   0.0000
    32 H32     -3.3757  -9.2390 -15.4249   H         1 RES1   0.0000
    33 H33     -3.4647  -9.4667 -13.6635   H         1 RES1   0.0000
    34 C34     -0.8411 -10.2528 -13.3320   C.3       1 RES1   0.0000
    35 H35     -1.3036  -9.9755 -12.3859   H         1 RES1   0.0000
    36 H36      0.2260 -10.0398 -13.2906   H         1 RES1   0.0000
    37 N37     -2.5009 -12.0402 -13.6790   N.4       1 RES1   1.0000
    38 H38     -2.9533 -11.8038 -12.8016   H         1 RES1   0.0000
    39 H39     -2.6175 -13.0315 -13.8633   H         1 RES1   0.0000
    40 N40     -3.1066  -4.1054 -14.2496   N.ar      1 RES1   0.0000
    41 C41     -2.7943  -2.7736 -16.5820   C.ar      1 RES1   0.0000
    42 H42     -2.6595  -2.2411 -17.5178   H         1 RES1   0.0000
    43 N43     -4.6653  -2.5314 -13.6568   N.pl3     1 RES1   0.0000
    44 H44     -4.8051  -3.0772 -12.8066   H         1 RES1   0.0000
    45 C45     -2.0537  -3.9194 -16.3721   C.ar      1 RES1   0.0000
    46 H46     -1.3589  -4.2911 -17.1180   H         1 RES1   0.0000
    47 C47     -3.7851  -2.9894 -14.5613   C.ar      1 RES1   0.0000
    48 N48     -3.6707  -2.2835 -15.6958   N.ar      1 RES1   0.0000
    49 C49     -5.4824  -1.3325 -13.8424   C.3       1 RES1   0.0000
    50 H50     -5.7210  -1.2307 -14.9125   H         1 RES1   0.0000
    51 C51     -4.7734  -0.0732 -13.3841   C.ar      1 RES1   0.0000
    52 C52     -6.7822  -1.5351 -13.0724   C.3       1 RES1   0.0000
    53 H53     -7.4452  -0.6823 -13.2027   H         1 RES1   0.0000
    54 H54     -7.3031  -2.4252 -13.4188   H         1 RES1   0.0000
    55 H55     -6.5846  -1.6507 -12.0088   H         1 RES1   0.0000
    56 C56     -3.4696   2.2347 -12.5276   C.ar      1 RES1   0.0000
    57 H57     -2.9611   3.1333 -12.1943   H         1 RES1   0.0000
    58 C58     -4.3635   0.0630 -12.0656   C.ar      1 RES1   0.0000
    59 H59     -4.5536  -0.7388 -11.3598   H         1 RES1   0.0000
    60 C60     -4.5211   0.9682 -14.2664   C.ar      1 RES1   0.0000
    61 H61     -4.8339   0.8852 -15.3020   H         1 RES1   0.0000
    62 C62     -3.8726   2.1147 -13.8393   C.ar      1 RES1   0.0000
    63 H63     -3.6815   2.9204 -14.5403   H         1 RES1   0.0000
    64 C64     -3.7145   1.2097 -11.6405   C.ar      1 RES1   0.0000
    65 H65     -3.3984   1.3008 -10.6067   H         1 RES1   0.0000
@<TRIPOS>BOND
     1     1     5   ar
     2     1     6   ar
     3     1     2    1
     4     3     8   ar
     5     3     9   ar
     6     3     4    1
     7     5     9   ar
     8     5    11    1
     9     6     8   ar
    10     6     7    1
    11     8    12    1
    12     9    10    1
    13    11    20    2
    14    11    23    1
    15    13    14    1
    16    13    23   am
    17    13    24    1
    18    14    31    1
    19    14    34    1
    20    14    15    1
    21    16    24    1
    22    16    17    1
    23    16    18    1
    24    16    19    1
    25    20    21    1
    26    20    24    1
    27    21    40   ar
    28    21    45   ar
    29    22    23    2
    30    25    34    1
    31    25    37    1
    32    25    26    1
    33    25    27    1
    34    28    31    1
    35    28    37    1
    36    28    29    1
    37    28    30    1
    38    31    32    1
    39    31    33    1
    40    34    35    1
    41    34    36    1
    42    37    38    1
    43    37    39    1
    44    40    47   ar
    45    41    45   ar
    46    41    48   ar
    47    41    42    1
    48    43    47    1
    49    43    49    1
    50    43    44    1
    51    45    46    1
    52    47    48   ar
    53    49    51    1
    54    49    52    1
    55    49    50    1
    56    51    58   ar
    57    51    60   ar
    58    52    53    1
    59    52    54    1
    60    52    55    1
    61    56    62   ar
    62    56    64   ar
    63    56    57    1
    64    58    64   ar
    65    58    59    1
    66    60    62   ar
    67    60    61    1
    68    62    63    1
    69    64    65    1
@<TRIPOS>SUBSTRUCTURE
     1 RES1        1 GROUP             0 ****  ****    0  
@<TRIPOS>MOLECULE
LIGAND_00468
    65    69     1     0     0
SMALL
USER_CHARGES
****
Generated from the CSD

@<TRIPOS>ATOM
     1 C1       1.1178  -4.3519 -15.9804   C.ar      1 RES1   0.0000
     2 H2       0.5415  -4.6443 -16.8515   H         1 RES1   0.0000
     3 C3       2.5766  -3.5625 -13.7712   C.ar      1 RES1   0.0000
     4 H4       3.1486  -3.2417 -12.9068   H         1 RES1   0.0000
     5 C5       0.8577  -4.9552 -14.7536   C.ar      1 RES1   0.0000
     6 C6       2.0944  -3.3806 -16.1121   C.ar      1 RES1   0.0000
     7 H7       2.2966  -2.9228 -17.0747   H         1 RES1   0.0000
     8 C8       2.7972  -3.0097 -15.0004   C.ar      1 RES1   0.0000
     9 C9       1.6072  -4.5418 -13.6558   C.ar      1 RES1   0.0000
    10 H10      1.4348  -4.9963 -12.6869   H         1 RES1   0.0000
    11 C11     -0.1996  -6.0061 -14.5946   C.2       1 RES1   0.0000
    12 F12      3.7554  -2.0511 -15.1215   F         1 RES1   0.0000
    13 N13     -1.2434  -7.9665 -14.2434   N.am      1 RES1   0.0000
    14 C14     -1.4584  -9.4319 -14.4945   C.3       1 RES1   0.0000
    15 H15     -0.9522  -9.6934 -15.4226   H         1 RES1   0.0000
    16 C16     -3.4974  -7.1153 -14.0546   C.3       1 RES1   0.0000
    17 H17     -4.2164  -7.6283 -14.6899   H         1 RES1   0.0000
    18 H18     -3.4245  -7.6614 -13.1164   H         1 RES1   0.0000
    19 H19     -3.8831  -6.1210 -13.8395   H         1 RES1   0.0000
    20 C20     -1.5198  -5.8249 -14.8186   C.2       1 RES1   0.0000
    21 C21     -2.2427  -4.5739 -15.1638   C.ar      1 RES1   0.0000
    22 O22      1.0451  -8.0085 -14.0408   O.2       1 RES1   0.0000
    23 C23      0.0125  -7.3830 -14.2428   C.2       1 RES1   0.0000
    24 N24     -2.1920  -7.0325 -14.7107   N.3       1 RES1   0.0000
    25 C25     -1.0323 -11.7517 -13.6205   C.3       1 RES1   0.0000
    26 H26     -0.6264 -12.3151 -12.7816   H         1 RES1   0.0000
    27 H27     -0.5096 -12.0328 -14.5335   H         1 RES1   0.0000
    28 C28     -3.1218 -11.2761 -14.8695   C.3       1 RES1   0.0000
    29 H29     -2.6614 -11.5557 -15.8159   H         1 RES1   0.0000
    30 H30     -4.1864 -11.5030 -14.9027   H         1 RES1   0.0000
    31 C31     -2.9364  -9.7829 -14.6459   C.3       1 RES1   0.0000
    32 H32     -3.3455  -9.2417 -15.4978   H         1 RES1   0.0000
    33 H33     -3.4666  -9.4897 -13.7410   H         1 RES1   0.0000
    34 C34     -0.8454 -10.2656 -13.3687   C.3       1 RES1   0.0000
    35 H35     -1.3272 -10.0014 -12.4284   H         1 RES1   0.0000
    36 H36      0.2196 -10.0475 -13.3047   H         1 RES1   0.0000
    37 N37     -2.4885 -12.0577 -13.7669   N.4       1 RES1   1.0000
    38 H38     -2.9587 -11.8336 -12.8957   H         1 RES1   0.0000
    39 H39     -2.5961 -13.0475 -13.9645   H         1 RES1   0.0000
    40 N40     -3.1066  -4.1054 -14.2496   N.ar      1 RES1   0.0000
    41 C41     -2.7943  -2.7736 -16.5820   C.ar      1 RES1   0.0000
    42 H42     -2.6595  -2.2411 -17.5178   H         1 RES1   0.0000
    43 N43     -4.6653  -2.5314 -13.6568   N.pl3     1 RES1   0.0000
    44 H44     -4.8051  -3.0772 -12.8066   H         1 RES1   0.0000
    45 C45     -2.0537  -3.9194 -16.3721   C.ar      1 RES1   0.0000
    46 H46     -1.3589  -4.2911 -17.1180   H         1 RES1   0.0000
    47 C47     -3.7851  -2.9894 -14.5613   C.ar      1 RES1   0.0000
    48 N48     -3.6707  -2.2835 -15.6958   N.ar      1 RES1   0.0000
    49 C49     -5.4824  -1.3325 -13.8424   C.3       1 RES1   0.0000
    50 H50     -5.7210  -1.2307 -14.9125   H         1 RES1   0.0000
    51 C51     -4.7734  -0.0732 -13.3841   C.ar      1 RES1   0.0000
    52 C52     -6.7822  -1.5351 -13.0724   C.3       1 RES1   0.0000
    53 H53     -7.4452  -0.6823 -13.2027   H         1 RES1   0.0000
    54 H54     -7.3031  -2.4252 -13.4188   H         1 RES1   0.0000
    55 H55     -6.5846  -1.6507 -12.0088   H         1 RES1   0.0000
    56 C56     -3.4696   2.2347 -12.5276   C.ar      1 RES1   0.0000
    57 H57     -2.9611   3.1334 -12.1943   H         1 RES1   0.0000
    58 C58     -4.3635   0.0630 -12.0656   C.ar      1 RES1   0.0000
    59 H59     -4.5536  -0.7388 -11.3598   H         1 RES1   0.0000
    60 C60     -4.5211   0.9682 -14.2664   C.ar      1 RES1   0.0000
    61 H61     -4.8339   0.8852 -15.3020   H         1 RES1   0.0000
    62 C62     -3.8726   2.1147 -13.8394   C.ar      1 RES1   0.0000
    63 H63     -3.6815   2.9204 -14.5404   H         1 RES1   0.0000
    64 C64     -3.7145   1.2097 -11.6405   C.ar      1 RES1   0.0000
    65 H65     -3.3984   1.3008 -10.6067   H         1 RES1   0.0000
@<TRIPOS>BOND
     1     1     5   ar
     2     1     6   ar
     3     1     2    1
     4     3     8   ar
     5     3     9   ar
     6     3     4    1
     7     5     9   ar
     8     5    11    1
     9     6     8   ar
    10     6     7    1
    11     8    12    1
    12     9    10    1
    13    11    20    2
    14    11    23    1
    15    13    14    1
    16    13    23   am
    17    13    24    1
    18    14    31    1
    19    14    34    1
    20    14    15    1
    21    16    24    1
    22    16    17    1
    23    16    18    1
    24    16    19    1
    25    20    21    1
    26    20    24    1
    27    21    40   ar
    28    21    45   ar
    29    22    23    2
    30    25    34    1
    31    25    37    1
    32    25    26    1
    33    25    27    1
    34    28    31    1
    35    28    37    1
    36    28    29    1
    37    28    30    1
    38    31    32    1
    39    31    33    1
    40    34    35    1
    41    34    36    1
    42    37    38    1
    43    37    39    1
    44    40    47   ar
    45    41    45   ar
    46    41    48   ar
    47    41    42    1
    48    43    47    1
    49    43    49    1
    50    43    44    1
    51    45    46    1
    52    47    48   ar
    53    49    51    1
    54    49    52    1
    55    49    50    1
    56    51    58   ar
    57    51    60   ar
    58    52    53    1
    59    52    54    1
    60    52    55    1
    61    56    62   ar
    62    56    64   ar
    63    56    57    1
    64    58    64   ar
    65    58    59    1
    66    60    62   ar
    67    60    61    1
    68    62    63    1
    69    64    65    1
@<TRIPOS>SUBSTRUCTURE
     1 RES1        1 GROUP             0 ****  ****    0  
@<TRIPOS>MOLECULE
LIGAND_00469
    65    69     1     0     0
SMALL
USER_CHARGES
****
Generated from the CSD

@<TRIPOS>ATOM
     1 C1       1.0101  -4.4583 -16.2804   C.ar      1 RES1   0.0000
     2 H2       0.3313  -4.7568 -17.0720   H         1 RES1   0.0000
     3 C3       2.7299  -3.6534 -14.2740   C.ar      1 RES1   0.0000
     4 H4       3.4044  -3.3266 -13.4894   H         1 RES1   0.0000
     5 C5       0.8727  -5.0183 -15.0138   C.ar      1 RES1   0.0000
     6 C6       1.9926  -3.5224 -16.5510   C.ar      1 RES1   0.0000
     7 H7       2.0980  -3.0986 -17.5441   H         1 RES1   0.0000
     8 C8       2.8262  -3.1427 -15.5370   C.ar      1 RES1   0.0000
     9 C9       1.7524  -4.5980 -14.0202   C.ar      1 RES1   0.0000
    10 H10      1.6774  -5.0193 -13.0242   H         1 RES1   0.0000
    11 C11     -0.1891  -6.0304 -14.7047   C.2       1 RES1   0.0000
    12 F12      3.7914  -2.2186 -15.7945   F         1 RES1   0.0000
    13 N13     -1.2406  -7.9410 -14.1570   N.am      1 RES1   0.0000
    14 C14     -1.5106  -9.4109 -14.3092   C.3       1 RES1   0.0000
    15 H15     -1.0971  -9.7333 -15.2637   H         1 RES1   0.0000
    16 C16     -3.4482  -7.0200 -13.8124   C.3       1 RES1   0.0000
    17 H17     -4.2329  -7.5471 -14.3512   H         1 RES1   0.0000
    18 H18     -3.3019  -7.5171 -12.8556   H         1 RES1   0.0000
    19 H19     -3.7914  -6.0059 -13.6188   H         1 RES1   0.0000
    20 C20     -1.5198  -5.8249 -14.8186   C.2       1 RES1   0.0000
    21 C21     -2.2427  -4.5739 -15.1638   C.ar      1 RES1   0.0000
    22 O22      1.0553  -8.0351 -14.1587   O.2       1 RES1   0.0000
    23 C23      0.0230  -7.3928 -14.3003   C.2       1 RES1   0.0000
    24 N24     -2.2065  -7.0066 -14.5865   N.3       1 RES1   0.0000
    25 C25     -1.0592 -11.6938 -13.3544   C.3       1 RES1   0.0000
    26 H26     -0.5913 -12.2244 -12.5264   H         1 RES1   0.0000
    27 H27     -0.6283 -12.0354 -14.2943   H         1 RES1   0.0000
    28 C28     -3.2425 -11.2258 -14.4343   C.3       1 RES1   0.0000
    29 H29     -2.8766 -11.5659 -15.4020   H         1 RES1   0.0000
    30 H30     -4.3105 -11.4249 -14.3596   H         1 RES1   0.0000
    31 C31     -3.0038  -9.7287 -14.3083   C.3       1 RES1   0.0000
    32 H32     -3.4764  -9.2208 -15.1477   H         1 RES1   0.0000
    33 H33     -3.4426  -9.3752 -13.3764   H         1 RES1   0.0000
    34 C34     -0.8166 -10.2024 -13.2000   C.3       1 RES1   0.0000
    35 H35     -1.2046  -9.8775 -12.2358   H         1 RES1   0.0000
    36 H36      0.2545 -10.0105 -13.2436   H         1 RES1   0.0000
    37 N37     -2.5292 -11.9670 -13.3529   N.4       1 RES1   1.0000
    38 H38     -2.9129 -11.6858 -12.4562   H         1 RES1   0.0000
    39 H39     -2.6767 -12.9622 -13.4869   H         1 RES1   0.0000
    40 N40     -3.0116  -4.6062 -16.2635   N.ar      1 RES1   0.0000
    41 C41     -2.8381  -2.3169 -14.8350   C.ar      1 RES1   0.0000
    42 H42     -2.7684  -1.4034 -14.2536   H         1 RES1   0.0000
    43 N43     -4.4021  -3.4981 -17.7116   N.pl3     1 RES1   0.0000
    44 H44     -4.4124  -4.3559 -18.2633   H         1 RES1   0.0000
    45 C45     -2.1279  -3.4192 -14.4038   C.ar      1 RES1   0.0000
    46 H46     -1.5077  -3.3828 -13.5143   H         1 RES1   0.0000
    47 C47     -3.6496  -3.4736 -16.6000   C.ar      1 RES1   0.0000
    48 N48     -3.6072  -2.3119 -15.9314   N.ar      1 RES1   0.0000
    49 C49     -5.1583  -2.3516 -18.2149   C.3       1 RES1   0.0000
    50 H50     -4.6080  -1.4305 -17.9680   H         1 RES1   0.0000
    51 C51     -6.5450  -2.2626 -17.6085   C.ar      1 RES1   0.0000
    52 C52     -5.2358  -2.4789 -19.7318   C.3       1 RES1   0.0000
    53 H53     -5.7628  -1.6308 -20.1641   H         1 RES1   0.0000
    54 H54     -4.2403  -2.5176 -20.1689   H         1 RES1   0.0000
    55 H55     -5.7654  -3.3862 -20.0146   H         1 RES1   0.0000
    56 C56     -9.0963  -2.1131 -16.4999   C.ar      1 RES1   0.0000
    57 H57    -10.0896  -2.0551 -16.0675   H         1 RES1   0.0000
    58 C58     -7.4534  -3.2980 -17.7750   C.ar      1 RES1   0.0000
    59 H59     -7.1666  -4.1761 -18.3442   H         1 RES1   0.0000
    60 C60     -6.9375  -1.1490 -16.8786   C.ar      1 RES1   0.0000
    61 H61     -6.2449  -0.3260 -16.7366   H         1 RES1   0.0000
    62 C62     -8.2059  -1.0762 -16.3279   C.ar      1 RES1   0.0000
    63 H63     -8.4986  -0.1999 -15.7593   H         1 RES1   0.0000
    64 C64     -8.7209  -3.2239 -17.2230   C.ar      1 RES1   0.0000
    65 H65     -9.4196  -4.0424 -17.3604   H         1 RES1   0.0000
@<TRIPOS>BOND
     1     1     5   ar
     2     1     6   ar
     3     1     2    1
     4     3     8   ar
     5     3     9   ar
     6     3     4    1
     7     5     9   ar
     8     5    11    1
     9     6     8   ar
    10     6     7    1
    11     8    12    1
    12     9    10    1
    13    11    20    2
    14    11    23    1
    15    13    14    1
    16    13    23   am
    17    13    24    1
    18    14    31    1
    19    14    34    1
    20    14    15    1
    21    16    24    1
    22    16    17    1
    23    16    18    1
    24    16    19    1
    25    20    21    1
    26    20    24    1
    27    21    40   ar
    28    21    45   ar
    29    22    23    2
    30    25    34    1
    31    25    37    1
    32    25    26    1
    33    25    27    1
    34    28    31    1
    35    28    37    1
    36    28    29    1
    37    28    30    1
    38    31    32    1
    39    31    33    1
    40    34    35    1
    41    34    36    1
    42    37    38    1
    43    37    39    1
    44    40    47   ar
    45    41    45   ar
    46    41    48   ar
    47    41    42    1
    48    43    47    1
    49    43    49    1
    50    43    44    1
    51    45    46    1
    52    47    48   ar
    53    49    51    1
    54    49    52    1
    55    49    50    1
    56    51    58   ar
    57    51    60   ar
    58    52    53    1
    59    52    54    1
    60    52    55    1
    61    56    62   ar
    62    56    64   ar
    63    56    57    1
    64    58    64   ar
    65    58    59    1
    66    60    62   ar
    67    60    61    1
    68    62    63    1
    69    64    65    1
@<TRIPOS>SUBSTRUCTURE
     1 RES1        1 GROUP             0 ****  ****    0  
@<TRIPOS>MOLECULE
LIGAND_00470
    65    69     1     0     0
SMALL
USER_CHARGES
****
Generated from the CSD

@<TRIPOS>ATOM
     1 C1       1.5945  -4.8288 -12.1386   C.ar      1 RES1   0.0000
     2 H2       2.3263  -5.3793 -12.7198   H         1 RES1   0.0000
     3 C3      -0.2492  -3.3867 -10.6712   C.ar      1 RES1   0.0000
     4 H4      -0.9673  -2.8109 -10.0968   H         1 RES1   0.0000
     5 C5       0.2402  -5.0990 -12.3108   C.ar      1 RES1   0.0000
     6 C6       2.0284  -3.8667 -11.2438   C.ar      1 RES1   0.0000
     7 H7       3.0868  -3.6699 -11.1094   H         1 RES1   0.0000
     8 C8       1.0921  -3.1684 -10.5347   C.ar      1 RES1   0.0000
     9 C9      -0.6690  -4.3605 -11.5588   C.ar      1 RES1   0.0000
    10 H10     -1.7311  -4.5505 -11.6636   H         1 RES1   0.0000
    11 C11     -0.2451  -6.1355 -13.2790   C.2       1 RES1   0.0000
    12 F12      1.5114  -2.2168  -9.6569   F         1 RES1   0.0000
    13 N13     -1.1690  -7.9872 -14.1588   N.am      1 RES1   0.0000
    14 C14     -1.3461  -9.4754 -14.2606   C.3       1 RES1   0.0000
    15 H15     -0.9637  -9.7957 -15.2286   H         1 RES1   0.0000
    16 C16     -1.1944  -7.2815 -16.4701   C.3       1 RES1   0.0000
    17 H17     -0.4858  -7.2514 -17.2952   H         1 RES1   0.0000
    18 H18     -1.8086  -8.1724 -16.5837   H         1 RES1   0.0000
    19 H19     -1.8420  -6.4107 -16.5466   H         1 RES1   0.0000
    20 C20     -0.0279  -6.1202 -14.6126   C.2       1 RES1   0.0000
    21 C21      0.6269  -5.0726 -15.4374   C.ar      1 RES1   0.0000
    22 O22     -1.2914  -7.8058 -11.8714   O.2       1 RES1   0.0000
    23 C23     -0.9602  -7.3385 -12.9532   C.2       1 RES1   0.0000
    24 N24     -0.4940  -7.2935 -15.1853   N.3       1 RES1   0.0000
    25 C25     -0.6897 -11.6960 -13.2782   C.3       1 RES1   0.0000
    26 H26     -0.1430 -12.1712 -12.4651   H         1 RES1   0.0000
    27 H27     -0.2878 -12.0339 -14.2322   H         1 RES1   0.0000
    28 C28     -2.9548 -11.4044 -14.2459   C.3       1 RES1   0.0000
    29 H29     -2.6193 -11.7458 -15.2240   H         1 RES1   0.0000
    30 H30     -4.0013 -11.6721 -14.1072   H         1 RES1   0.0000
    31 C31     -2.8120  -9.8918 -14.1691   C.3       1 RES1   0.0000
    32 H32     -3.3627  -9.4398 -14.9928   H         1 RES1   0.0000
    33 H33     -3.2230  -9.5428 -13.2229   H         1 RES1   0.0000
    34 C34     -0.5412 -10.1881 -13.1732   C.3       1 RES1   0.0000
    35 H35     -0.8979  -9.8633 -12.1969   H         1 RES1   0.0000
    36 H36      0.5104  -9.9265 -13.2808   H         1 RES1   0.0000
    37 N37     -2.1356 -12.0664 -13.1884   N.4       1 RES1   1.0000
    38 H38     -2.4886 -11.7868 -12.2788   H         1 RES1   0.0000
    39 H39     -2.2220 -13.0725 -13.2902   H         1 RES1   0.0000
    40 N40      1.9307  -5.2446 -15.7060   N.ar      1 RES1   0.0000
    41 C41      0.6624  -3.0499 -16.6475   C.ar      1 RES1   0.0000
    42 H42      0.1456  -2.1746 -17.0270   H         1 RES1   0.0000
    43 N43      3.8487  -4.4508 -16.6805   N.pl3     1 RES1   0.0000
    44 H44      4.3186  -3.7392 -17.2400   H         1 RES1   0.0000
    45 C45     -0.0596  -3.9606 -15.9027   C.ar      1 RES1   0.0000
    46 H46     -1.1130  -3.8119 -15.6895   H         1 RES1   0.0000
    47 C47      2.5396  -4.2909 -16.4291   C.ar      1 RES1   0.0000
    48 N48      1.9652  -3.1860 -16.9266   N.ar      1 RES1   0.0000
    49 C49      4.6289  -5.6129 -16.2558   C.3       1 RES1   0.0000
    50 H50      3.9670  -6.4924 -16.2323   H         1 RES1   0.0000
    51 C51      5.2365  -5.4293 -14.8790   C.ar      1 RES1   0.0000
    52 C52      5.7130  -5.8490 -17.3009   C.3       1 RES1   0.0000
    53 H53      6.3463  -6.6871 -17.0179   H         1 RES1   0.0000
    54 H54      5.2739  -6.0689 -18.2718   H         1 RES1   0.0000
    55 H55      6.3436  -4.9686 -17.4060   H         1 RES1   0.0000
    56 C56      6.3652  -5.0848 -12.3555   C.ar      1 RES1   0.0000
    57 H57      6.8043  -4.9501 -11.3726   H         1 RES1   0.0000
    58 C58      6.4703  -4.8121 -14.7311   C.ar      1 RES1   0.0000
    59 H59      7.0020  -4.4600 -15.6090   H         1 RES1   0.0000
    60 C60      4.5782  -5.8735 -13.7405   C.ar      1 RES1   0.0000
    61 H61      3.6130  -6.3606 -13.8313   H         1 RES1   0.0000
    62 C62      5.1403  -5.7013 -12.4868   C.ar      1 RES1   0.0000
    63 H63      4.6140  -6.0530 -11.6057   H         1 RES1   0.0000
    64 C64      7.0305  -4.6401 -13.4767   C.ar      1 RES1   0.0000
    65 H65      7.9953  -4.1541 -13.3770   H         1 RES1   0.0000
@<TRIPOS>BOND
     1     1     5   ar
     2     1     6   ar
     3     1     2    1
     4     3     8   ar
     5     3     9   ar
     6     3     4    1
     7     5     9   ar
     8     5    11    1
     9     6     8   ar
    10     6     7    1
    11     8    12    1
    12     9    10    1
    13    11    20    2
    14    11    23    1
    15    13    14    1
    16    13    23   am
    17    13    24    1
    18    14    31    1
    19    14    34    1
    20    14    15    1
    21    16    24    1
    22    16    17    1
    23    16    18    1
    24    16    19    1
    25    20    21    1
    26    20    24    1
    27    21    40   ar
    28    21    45   ar
    29    22    23    2
    30    25    34    1
    31    25    37    1
    32    25    26    1
    33    25    27    1
    34    28    31    1
    35    28    37    1
    36    28    29    1
    37    28    30    1
    38    31    32    1
    39    31    33    1
    40    34    35    1
    41    34    36    1
    42    37    38    1
    43    37    39    1
    44    40    47   ar
    45    41    45   ar
    46    41    48   ar
    47    41    42    1
    48    43    47    1
    49    43    49    1
    50    43    44    1
    51    45    46    1
    52    47    48   ar
    53    49    51    1
    54    49    52    1
    55    49    50    1
    56    51    58   ar
    57    51    60   ar
    58    52    53    1
    59    52    54    1
    60    52    55    1
    61    56    62   ar
    62    56    64   ar
    63    56    57    1
    64    58    64   ar
    65    58    59    1
    66    60    62   ar
    67    60    61    1
    68    62    63    1
    69    64    65    1
@<TRIPOS>SUBSTRUCTURE
     1 RES1        1 GROUP             0 ****  ****    0  
@<TRIPOS>MOLECULE
LIGAND_00471
    65    69     1     0     0
SMALL
USER_CHARGES
****
Generated from the CSD

@<TRIPOS>ATOM
     1 C1      -1.4024  -4.1339 -11.7842   C.ar      1 RES1   0.0000
     2 H2      -0.9065  -4.8893 -11.1843   H         1 RES1   0.0000
     3 C3      -2.6323  -2.1793 -13.3003   C.ar      1 RES1   0.0000
     4 H4      -3.1082  -1.4039 -13.8916   H         1 RES1   0.0000
     5 C5      -1.7520  -4.4252 -13.0994   C.ar      1 RES1   0.0000
     6 C6      -1.6692  -2.8964 -11.2257   C.ar      1 RES1   0.0000
     7 H7      -1.4015  -2.6818 -10.1965   H         1 RES1   0.0000
     8 C8      -2.2762  -1.9497 -12.0020   C.ar      1 RES1   0.0000
     9 C9      -2.3723  -3.4247 -13.8422   C.ar      1 RES1   0.0000
    10 H10     -2.6641  -3.6207 -14.8677   H         1 RES1   0.0000
    11 C11     -1.4661  -5.7599 -13.7192   C.2       1 RES1   0.0000
    12 F12     -2.5367  -0.7284 -11.4610   F         1 RES1   0.0000
    13 N13     -1.2406  -7.9410 -14.1570   N.am      1 RES1   0.0000
    14 C14     -1.5106  -9.4109 -14.3092   C.3       1 RES1   0.0000
    15 H15     -1.0877  -9.7355 -15.2588   H         1 RES1   0.0000
    16 C16      0.5880  -7.8074 -15.7832   C.3       1 RES1   0.0000
    17 H17      1.2887  -7.0330 -16.0885   H         1 RES1   0.0000
    18 H18      1.0948  -8.4637 -15.0787   H         1 RES1   0.0000
    19 H19      0.3238  -8.3920 -16.6619   H         1 RES1   0.0000
    20 C20     -0.6831  -5.9011 -14.8182   C.2       1 RES1   0.0000
    21 C21      0.0470  -4.8479 -15.5693   C.ar      1 RES1   0.0000
    22 O22     -2.6001  -7.4331 -12.3638   O.2       1 RES1   0.0000
    23 C23     -1.8681  -7.0711 -13.2757   C.2       1 RES1   0.0000
    24 N24     -0.6058  -7.2168 -15.1771   N.3       1 RES1   0.0000
    25 C25     -1.0714 -11.6924 -13.3455   C.3       1 RES1   0.0000
    26 H26     -0.6127 -12.2220 -12.5118   H         1 RES1   0.0000
    27 H27     -0.6313 -12.0363 -14.2803   H         1 RES1   0.0000
    28 C28     -3.2430 -11.2242 -14.4486   C.3       1 RES1   0.0000
    29 H29     -2.8676 -11.5665 -15.4119   H         1 RES1   0.0000
    30 H30     -4.3120 -11.4221 -14.3845   H         1 RES1   0.0000
    31 C31     -3.0040  -9.7271 -14.3230   C.3       1 RES1   0.0000
    32 H32     -3.4675  -9.2203 -15.1682   H         1 RES1   0.0000
    33 H33     -3.4520  -9.3714 -13.3964   H         1 RES1   0.0000
    34 C34     -0.8288 -10.2011 -13.1915   C.3       1 RES1   0.0000
    35 H35     -1.2264  -9.8739 -12.2319   H         1 RES1   0.0000
    36 H36      0.2428 -10.0103 -13.2245   H         1 RES1   0.0000
    37 N37     -2.5417 -11.9641 -13.3586   N.4       1 RES1   1.0000
    38 H38     -2.9342 -11.6809 -12.4664   H         1 RES1   0.0000
    39 H39     -2.6888 -12.9595 -13.4922   H         1 RES1   0.0000
    40 N40     -0.6147  -4.2583 -16.5774   N.ar      1 RES1   0.0000
    41 C41      1.9275  -3.5078 -16.0432   C.ar      1 RES1   0.0000
    42 H42      2.9459  -3.2075 -15.8194   H         1 RES1   0.0000
    43 N43     -0.6092  -2.7473 -18.3022   N.pl3     1 RES1   0.0000
    44 H44     -1.5557  -3.0680 -18.5061   H         1 RES1   0.0000
    45 C45      1.3520  -4.4906 -15.2633   C.ar      1 RES1   0.0000
    46 H46      1.8956  -4.9625 -14.4516   H         1 RES1   0.0000
    47 C47      0.0441  -3.3228 -17.2801   C.ar      1 RES1   0.0000
    48 N48      1.2995  -2.9053 -17.0613   N.ar      1 RES1   0.0000
    49 C49     -0.0259  -1.7339 -19.1810   C.3       1 RES1   0.0000
    50 H50      0.3497  -0.9044 -18.5619   H         1 RES1   0.0000
    51 C51     -1.0311  -1.1801 -20.1716   C.ar      1 RES1   0.0000
    52 C52      1.1541  -2.3727 -19.9041   C.3       1 RES1   0.0000
    53 H53      1.2615  -1.9620 -20.9059   H         1 RES1   0.0000
    54 H54      2.0817  -2.1953 -19.3640   H         1 RES1   0.0000
    55 H55      1.0140  -3.4480 -19.9925   H         1 RES1   0.0000
    56 C56     -2.8804  -0.1768 -21.9975   C.ar      1 RES1   0.0000
    57 H57     -3.6012   0.2140 -22.7081   H         1 RES1   0.0000
    58 C58     -1.6577  -2.0193 -21.0816   C.ar      1 RES1   0.0000
    59 H59     -1.4242  -3.0789 -21.0822   H         1 RES1   0.0000
    60 C60     -1.3451   0.1719 -20.1935   C.ar      1 RES1   0.0000
    61 H61     -0.8666   0.8479 -19.4927   H         1 RES1   0.0000
    62 C62     -2.2648   0.6691 -21.1014   C.ar      1 RES1   0.0000
    63 H63     -2.5008   1.7280 -21.1065   H         1 RES1   0.0000
    64 C64     -2.5776  -1.5206 -21.9882   C.ar      1 RES1   0.0000
    65 H65     -3.0607  -2.1897 -22.6924   H         1 RES1   0.0000
@<TRIPOS>BOND
     1     1     5   ar
     2     1     6   ar
     3     1     2    1
     4     3     8   ar
     5     3     9   ar
     6     3     4    1
     7     5     9   ar
     8     5    11    1
     9     6     8   ar
    10     6     7    1
    11     8    12    1
    12     9    10    1
    13    11    20    2
    14    11    23    1
    15    13    14    1
    16    13    23   am
    17    13    24    1
    18    14    31    1
    19    14    34    1
    20    14    15    1
    21    16    24    1
    22    16    17    1
    23    16    18    1
    24    16    19    1
    25    20    21    1
    26    20    24    1
    27    21    40   ar
    28    21    45   ar
    29    22    23    2
    30    25    34    1
    31    25    37    1
    32    25    26    1
    33    25    27    1
    34    28    31    1
    35    28    37    1
    36    28    29    1
    37    28    30    1
    38    31    32    1
    39    31    33    1
    40    34    35    1
    41    34    36    1
    42    37    38    1
    43    37    39    1
    44    40    47   ar
    45    41    45   ar
    46    41    48   ar
    47    41    42    1
    48    43    47    1
    49    43    49    1
    50    43    44    1
    51    45    46    1
    52    47    48   ar
    53    49    51    1
    54    49    52    1
    55    49    50    1
    56    51    58   ar
    57    51    60   ar
    58    52    53    1
    59    52    54    1
    60    52    55    1
    61    56    62   ar
    62    56    64   ar
    63    56    57    1
    64    58    64   ar
    65    58    59    1
    66    60    62   ar
    67    60    61    1
    68    62    63    1
    69    64    65    1
@<TRIPOS>SUBSTRUCTURE
     1 RES1        1 GROUP             0 ****  ****    0  
@<TRIPOS>MOLECULE
LIGAND_00472
    65    69     1     0     0
SMALL
USER_CHARGES
****
Generated from the CSD

@<TRIPOS>ATOM
     1 C1       1.8737  -5.0652 -12.2302   C.ar      1 RES1   0.0000
     2 H2       2.5164  -5.6234 -12.9024   H         1 RES1   0.0000
     3 C3       0.2583  -3.6042 -10.5309   C.ar      1 RES1   0.0000
     4 H4      -0.3698  -3.0213  -9.8654   H         1 RES1   0.0000
     5 C5       0.4953  -5.2454 -12.2944   C.ar      1 RES1   0.0000
     6 C6       2.4431  -4.1830 -11.3292   C.ar      1 RES1   0.0000
     7 H7       3.5195  -4.0564 -11.2800   H         1 RES1   0.0000
     8 C8       1.6175  -3.4729 -10.5038   C.ar      1 RES1   0.0000
     9 C9      -0.2973  -4.4993 -11.4267   C.ar      1 RES1   0.0000
    10 H10     -1.3743  -4.6206 -11.4457   H         1 RES1   0.0000
    11 C11     -0.1363  -6.1947 -13.2677   C.2       1 RES1   0.0000
    12 F12      2.1702  -2.5993  -9.6188   F         1 RES1   0.0000
    13 N13     -1.2519  -7.9332 -14.1561   N.am      1 RES1   0.0000
    14 C14     -1.5370  -9.3995 -14.3157   C.3       1 RES1   0.0000
    15 H15     -1.2573  -9.6899 -15.3273   H         1 RES1   0.0000
    16 C16     -1.4177  -7.1020 -16.4193   C.3       1 RES1   0.0000
    17 H17     -0.7782  -7.0717 -17.2991   H         1 RES1   0.0000
    18 H18     -2.0980  -7.9446 -16.5242   H         1 RES1   0.0000
    19 H19     -2.0090  -6.1890 -16.3976   H         1 RES1   0.0000
    20 C20     -0.0279  -6.1202 -14.6126   C.2       1 RES1   0.0000
    21 C21      0.6269  -5.0726 -15.4374   C.ar      1 RES1   0.0000
    22 O22     -1.1750  -7.8698 -11.8604   O.2       1 RES1   0.0000
    23 C23     -0.9023  -7.3660 -12.9421   C.2       1 RES1   0.0000
    24 N24     -0.6174  -7.2286 -15.2008   N.3       1 RES1   0.0000
    25 C25     -0.9544 -11.7075 -13.5030   C.3       1 RES1   0.0000
    26 H26     -0.3766 -12.2602 -12.7638   H         1 RES1   0.0000
    27 H27     -0.6554 -12.0175 -14.5032   H         1 RES1   0.0000
    28 C28     -3.2659 -11.2206 -14.2594   C.3       1 RES1   0.0000
    29 H29     -3.0351 -11.5286 -15.2781   H         1 RES1   0.0000
    30 H30     -4.3133 -11.4287 -14.0457   H         1 RES1   0.0000
    31 C31     -3.0154  -9.7266 -14.1206   C.3       1 RES1   0.0000
    32 H32     -3.5995  -9.1963 -14.8713   H         1 RES1   0.0000
    33 H33     -3.3233  -9.4046 -13.1269   H         1 RES1   0.0000
    34 C34     -0.6962 -10.2201 -13.3369   C.3       1 RES1   0.0000
    35 H35     -0.9494  -9.9272 -12.3191   H         1 RES1   0.0000
    36 H36      0.3585 -10.0201 -13.5205   H         1 RES1   0.0000
    37 N37     -2.4099 -11.9900 -13.3092   N.4       1 RES1   1.0000
    38 H38     -2.6679 -11.7388 -12.3602   H         1 RES1   0.0000
    39 H39     -2.5722 -12.9816 -13.4527   H         1 RES1   0.0000
    40 N40      1.1649  -5.4706 -16.6010   N.ar      1 RES1   0.0000
    41 C41      1.3443  -2.8710 -15.8790   C.ar      1 RES1   0.0000
    42 H42      1.4074  -1.8282 -15.5856   H         1 RES1   0.0000
    43 N43      2.3394  -4.9378 -18.4970   N.pl3     1 RES1   0.0000
    44 H44      2.7701  -4.2296 -19.0913   H         1 RES1   0.0000
    45 C45      0.6974  -3.7479 -15.0318   C.ar      1 RES1   0.0000
    46 H46      0.2670  -3.4169 -14.0924   H         1 RES1   0.0000
    47 C47      1.7822  -4.5372 -17.3430   C.ar      1 RES1   0.0000
    48 N48      1.8994  -3.2357 -17.0420   N.ar      1 RES1   0.0000
    49 C49      2.3122  -6.3164 -18.9852   C.3       1 RES1   0.0000
    50 H50      1.3723  -6.7876 -18.6583   H         1 RES1   0.0000
    51 C51      3.4725  -7.1386 -18.4596   C.ar      1 RES1   0.0000
    52 C52      2.3268  -6.2678 -20.5085   C.3       1 RES1   0.0000
    53 H53      2.2748  -7.2706 -20.9274   H         1 RES1   0.0000
    54 H54      1.4800  -5.6986 -20.8862   H         1 RES1   0.0000
    55 H55      3.2390  -5.7972 -20.8692   H         1 RES1   0.0000
    56 C56      5.5993  -8.6617 -17.5018   C.ar      1 RES1   0.0000
    57 H57      6.4280  -9.2546 -17.1293   H         1 RES1   0.0000
    58 C58      3.6095  -8.4718 -18.8184   C.ar      1 RES1   0.0000
    59 H59      2.8792  -8.9266 -19.4796   H         1 RES1   0.0000
    60 C60      4.4185  -6.5815 -17.6101   C.ar      1 RES1   0.0000
    61 H61      4.3312  -5.5413 -17.3142   H         1 RES1   0.0000
    62 C62      5.4753  -7.3397 -17.1351   C.ar      1 RES1   0.0000
    63 H63      6.2075  -6.8907 -16.4723   H         1 RES1   0.0000
    64 C64      4.6672  -9.2282 -18.3431   C.ar      1 RES1   0.0000
    65 H65      4.7618 -10.2691 -18.6341   H         1 RES1   0.0000
@<TRIPOS>BOND
     1     1     5   ar
     2     1     6   ar
     3     1     2    1
     4     3     8   ar
     5     3     9   ar
     6     3     4    1
     7     5     9   ar
     8     5    11    1
     9     6     8   ar
    10     6     7    1
    11     8    12    1
    12     9    10    1
    13    11    20    2
    14    11    23    1
    15    13    14    1
    16    13    23   am
    17    13    24    1
    18    14    31    1
    19    14    34    1
    20    14    15    1
    21    16    24    1
    22    16    17    1
    23    16    18    1
    24    16    19    1
    25    20    21    1
    26    20    24    1
    27    21    40   ar
    28    21    45   ar
    29    22    23    2
    30    25    34    1
    31    25    37    1
    32    25    26    1
    33    25    27    1
    34    28    31    1
    35    28    37    1
    36    28    29    1
    37    28    30    1
    38    31    32    1
    39    31    33    1
    40    34    35    1
    41    34    36    1
    42    37    38    1
    43    37    39    1
    44    40    47   ar
    45    41    45   ar
    46    41    48   ar
    47    41    42    1
    48    43    47    1
    49    43    49    1
    50    43    44    1
    51    45    46    1
    52    47    48   ar
    53    49    51    1
    54    49    52    1
    55    49    50    1
    56    51    58   ar
    57    51    60   ar
    58    52    53    1
    59    52    54    1
    60    52    55    1
    61    56    62   ar
    62    56    64   ar
    63    56    57    1
    64    58    64   ar
    65    58    59    1
    66    60    62   ar
    67    60    61    1
    68    62    63    1
    69    64    65    1
@<TRIPOS>SUBSTRUCTURE
     1 RES1        1 GROUP             0 ****  ****    0  
@<TRIPOS>MOLECULE
LIGAND_00473
    65    69     1     0     0
SMALL
USER_CHARGES
****
Generated from the CSD

@<TRIPOS>ATOM
     1 C1      -0.5385  -3.3928 -14.9304   C.ar      1 RES1   0.0000
     2 H2      -1.6072  -3.3856 -14.7452   H         1 RES1   0.0000
     3 C3       2.1881  -3.3745 -15.3742   C.ar      1 RES1   0.0000
     4 H4       3.2598  -3.3574 -15.5430   H         1 RES1   0.0000
     5 C5       0.1747  -4.5780 -14.7765   C.ar      1 RES1   0.0000
     6 C6       0.0888  -2.2194 -15.3100   C.ar      1 RES1   0.0000
     7 H7      -0.4772  -1.3026 -15.4368   H         1 RES1   0.0000
     8 C8       1.4389  -2.2419 -15.5196   C.ar      1 RES1   0.0000
     9 C9       1.5470  -4.5436 -15.0077   C.ar      1 RES1   0.0000
    10 H10      2.1313  -5.4507 -14.9035   H         1 RES1   0.0000
    11 C11     -0.4903  -5.8560 -14.3622   C.2       1 RES1   0.0000
    12 F12      2.0633  -1.0902 -15.8878   F         1 RES1   0.0000
    13 N13     -1.2750  -7.9281 -14.1792   N.am      1 RES1   0.0000
    14 C14     -1.5927  -9.3856 -14.3562   C.3       1 RES1   0.0000
    15 H15     -1.1371  -9.7200 -15.2871   H         1 RES1   0.0000
    16 C16     -2.2090  -7.8148 -11.8356   C.3       1 RES1   0.0000
    17 H17     -2.7527  -7.0793 -11.2463   H         1 RES1   0.0000
    18 H18     -2.8968  -8.6176 -12.0931   H         1 RES1   0.0000
    19 H19     -1.4190  -8.2311 -11.2141   H         1 RES1   0.0000
    20 C20     -1.1594  -5.9688 -13.1688   C.2       1 RES1   0.0000
    21 C21     -1.4160  -4.9157 -12.1531   C.ar      1 RES1   0.0000
    22 O22     -0.1260  -7.5193 -16.0779   O.2       1 RES1   0.0000
    23 C23     -0.5726  -7.1246 -15.0088   C.2       1 RES1   0.0000
    24 N24     -1.6498  -7.2026 -13.0413   N.pl3     1 RES1   0.0000
    25 C25     -1.2872 -11.6883 -13.3915   C.3       1 RES1   0.0000
    26 H26     -0.8895 -12.2404 -12.5412   H         1 RES1   0.0000
    27 H27     -0.8158 -12.0428 -14.3070   H         1 RES1   0.0000
    28 C28     -3.3838 -11.1304 -14.5936   C.3       1 RES1   0.0000
    29 H29     -2.9756 -11.4806 -15.5405   H         1 RES1   0.0000
    30 H30     -4.4613 -11.2877 -14.5824   H         1 RES1   0.0000
    31 C31     -3.0946  -9.6444 -14.4443   C.3       1 RES1   0.0000
    32 H32     -3.4974  -9.1148 -15.3064   H         1 RES1   0.0000
    33 H33     -3.5730  -9.2778 -13.5372   H         1 RES1   0.0000
    34 C34     -0.9960 -10.2083 -13.2137   C.3       1 RES1   0.0000
    35 H35     -1.4267  -9.8724 -12.2716   H         1 RES1   0.0000
    36 H36      0.0824 -10.0585 -13.1937   H         1 RES1   0.0000
    37 N37     -2.7643 -11.9036 -13.4773   N.4       1 RES1   1.0000
    38 H38     -3.1884 -11.6113 -12.6027   H         1 RES1   0.0000
    39 H39     -2.9424 -12.8917 -13.6260   H         1 RES1   0.0000
    40 N40     -2.5784  -4.2520 -12.2536   N.ar      1 RES1   0.0000
    41 C41     -0.8501  -3.6050 -10.2773   C.ar      1 RES1   0.0000
    42 H42     -0.1544  -3.3547  -9.4832   H         1 RES1   0.0000
    43 N43     -3.9628  -2.6010 -11.4687   N.pl3     1 RES1   0.0000
    44 H44     -4.1682  -1.8885 -10.7684   H         1 RES1   0.0000
    45 C45     -0.5032  -4.6139 -11.1531   C.ar      1 RES1   0.0000
    46 H46      0.4396  -5.1435 -11.0647   H         1 RES1   0.0000
    47 C47     -2.8100  -3.2801 -11.3565   C.ar      1 RES1   0.0000
    48 N48     -1.9968  -2.9172 -10.3539   N.ar      1 RES1   0.0000
    49 C49     -4.9714  -2.8623 -12.4954   C.3       1 RES1   0.0000
    50 H50     -4.9293  -3.9283 -12.7677   H         1 RES1   0.0000
    51 C51     -4.7500  -2.0354 -13.7466   C.ar      1 RES1   0.0000
    52 C52     -6.3377  -2.5705 -11.8860   C.3       1 RES1   0.0000
    53 H53     -7.1347  -2.8993 -12.5496   H         1 RES1   0.0000
    54 H54     -6.4555  -3.0847 -10.9345   H         1 RES1   0.0000
    55 H55     -6.4608  -1.5036 -11.7119   H         1 RES1   0.0000
    56 C56     -4.3585  -0.5163 -16.0487   C.ar      1 RES1   0.0000
    57 H57     -4.2060   0.0760 -16.9449   H         1 RES1   0.0000
    58 C58     -5.8213  -1.6796 -14.5534   C.ar      1 RES1   0.0000
    59 H59     -6.8233  -1.9974 -14.2846   H         1 RES1   0.0000
    60 C60     -3.4779  -1.6190 -14.1143   C.ar      1 RES1   0.0000
    61 H61     -2.6245  -1.8865 -13.5000   H         1 RES1   0.0000
    62 C62     -3.2849  -0.8636 -15.2586   C.ar      1 RES1   0.0000
    63 H63     -2.2849  -0.5446 -15.5333   H         1 RES1   0.0000
    64 C64     -5.6265  -0.9237 -15.6969   C.ar      1 RES1   0.0000
    65 H65     -6.4744  -0.6518 -16.3167   H         1 RES1   0.0000
@<TRIPOS>BOND
     1     1     5   ar
     2     1     6   ar
     3     1     2    1
     4     3     8   ar
     5     3     9   ar
     6     3     4    1
     7     5     9   ar
     8     5    11    1
     9     6     8   ar
    10     6     7    1
    11     8    12    1
    12     9    10    1
    13    11    20    2
    14    11    23    1
    15    13    14    1
    16    13    23   am
    17    13    24    1
    18    14    31    1
    19    14    34    1
    20    14    15    1
    21    16    24    1
    22    16    17    1
    23    16    18    1
    24    16    19    1
    25    20    21    1
    26    20    24    1
    27    21    40   ar
    28    21    45   ar
    29    22    23    2
    30    25    34    1
    31    25    37    1
    32    25    26    1
    33    25    27    1
    34    28    31    1
    35    28    37    1
    36    28    29    1
    37    28    30    1
    38    31    32    1
    39    31    33    1
    40    34    35    1
    41    34    36    1
    42    37    38    1
    43    37    39    1
    44    40    47   ar
    45    41    45   ar
    46    41    48   ar
    47    41    42    1
    48    43    47    1
    49    43    49    1
    50    43    44    1
    51    45    46    1
    52    47    48   ar
    53    49    51    1
    54    49    52    1
    55    49    50    1
    56    51    58   ar
    57    51    60   ar
    58    52    53    1
    59    52    54    1
    60    52    55    1
    61    56    62   ar
    62    56    64   ar
    63    56    57    1
    64    58    64   ar
    65    58    59    1
    66    60    62   ar
    67    60    61    1
    68    62    63    1
    69    64    65    1
@<TRIPOS>SUBSTRUCTURE
     1 RES1        1 GROUP             0 ****  ****    0  
@<TRIPOS>MOLECULE
LIGAND_00474
    65    69     1     0     0
SMALL
USER_CHARGES
****
Generated from the CSD

@<TRIPOS>ATOM
     1 C1      -0.3089  -3.4844 -14.8706   C.ar      1 RES1   0.0000
     2 H2      -1.3904  -3.4811 -14.7880   H         1 RES1   0.0000
     3 C3       2.4474  -3.4548 -15.0541   C.ar      1 RES1   0.0000
     4 H4       3.5301  -3.4331 -15.1211   H         1 RES1   0.0000
     5 C5       0.3945  -4.6544 -14.6003   C.ar      1 RES1   0.0000
     6 C6       0.3436  -2.3208 -15.2378   C.ar      1 RES1   0.0000
     7 H7      -0.2140  -1.4161 -15.4559   H         1 RES1   0.0000
     8 C8       1.7077  -2.3373 -15.3172   C.ar      1 RES1   0.0000
     9 C9       1.7823  -4.6147 -14.7015   C.ar      1 RES1   0.0000
    10 H10      2.3603  -5.5104 -14.5045   H         1 RES1   0.0000
    11 C11     -0.2981  -5.9215 -14.1979   C.2       1 RES1   0.0000
    12 F12      2.3564  -1.1950 -15.6724   F         1 RES1   0.0000
    13 N13     -1.2096  -7.9620 -14.1230   N.am      1 RES1   0.0000
    14 C14     -1.4266  -9.4435 -14.2439   C.3       1 RES1   0.0000
    15 H15     -0.8849  -9.7939 -15.1212   H         1 RES1   0.0000
    16 C16     -2.8734  -7.5626 -12.3685   C.3       1 RES1   0.0000
    17 H17     -3.1098  -6.8493 -11.5816   H         1 RES1   0.0000
    18 H18     -3.6533  -7.5030 -13.1249   H         1 RES1   0.0000
    19 H19     -2.8934  -8.5617 -11.9384   H         1 RES1   0.0000
    20 C20     -1.0688  -6.0097 -13.0848   C.2       1 RES1   0.0000
    21 C21     -1.4087  -4.9383 -12.1137   C.ar      1 RES1   0.0000
    22 O22      0.2151  -7.5855 -15.8980   O.2       1 RES1   0.0000
    23 C23     -0.3475  -7.1868 -14.8867   C.2       1 RES1   0.0000
    24 N24     -1.5617  -7.2766 -12.9507   N.3       1 RES1   0.0000
    25 C25     -1.0572 -11.6724 -13.1383   C.3       1 RES1   0.0000
    26 H26     -0.6911 -12.1560 -12.2338   H         1 RES1   0.0000
    27 H27     -0.4996 -12.0410 -13.9981   H         1 RES1   0.0000
    28 C28     -3.0891 -11.3070 -14.5130   C.3       1 RES1   0.0000
    29 H29     -2.5924 -11.6769 -15.4088   H         1 RES1   0.0000
    30 H30     -4.1533 -11.5310 -14.5693   H         1 RES1   0.0000
    31 C31     -2.9001  -9.8002 -14.4234   C.3       1 RES1   0.0000
    32 H32     -3.2690  -9.3400 -15.3388   H         1 RES1   0.0000
    33 H33     -3.4647  -9.4204 -13.5731   H         1 RES1   0.0000
    34 C34     -0.8680 -10.1701 -13.0198   C.3       1 RES1   0.0000
    35 H35     -1.3859  -9.8161 -12.1297   H         1 RES1   0.0000
    36 H36      0.1953  -9.9520 -12.9320   H         1 RES1   0.0000
    37 N37     -2.5087 -11.9840 -13.3162   N.4       1 RES1   1.0000
    38 H38     -3.0125 -11.6764 -12.4904   H         1 RES1   0.0000
    39 H39     -2.6166 -12.9875 -13.4241   H         1 RES1   0.0000
    40 N40     -2.7044  -4.6015 -12.0170   N.ar      1 RES1   0.0000
    41 C41     -0.8828  -3.3107 -10.4916   C.ar      1 RES1   0.0000
    42 H42     -0.1470  -2.8011  -9.8782   H         1 RES1   0.0000
    43 N43     -4.3133  -3.2636 -11.0790   N.pl3     1 RES1   0.0000
    44 H44     -4.8810  -3.3272 -11.9240   H         1 RES1   0.0000
    45 C45     -0.4438  -4.3003 -11.3480   C.ar      1 RES1   0.0000
    46 H46      0.6060  -4.5644 -11.4202   H         1 RES1   0.0000
    47 C47     -3.0204  -3.6162 -11.1612   C.ar      1 RES1   0.0000
    48 N48     -2.1657  -2.9439 -10.3765   N.ar      1 RES1   0.0000
    49 C49     -4.9432  -2.7342  -9.8696   C.3       1 RES1   0.0000
    50 H50     -4.1975  -2.1467  -9.3121   H         1 RES1   0.0000
    51 C51     -5.4686  -3.8309  -8.9643   C.ar      1 RES1   0.0000
    52 C52     -6.0687  -1.8028 -10.3044   C.3       1 RES1   0.0000
    53 H53     -6.5535  -1.3533  -9.4403   H         1 RES1   0.0000
    54 H54     -5.6873  -1.0015 -10.9338   H         1 RES1   0.0000
    55 H55     -6.8219  -2.3480 -10.8694   H         1 RES1   0.0000
    56 C56     -6.4433  -5.8510  -7.3122   C.ar      1 RES1   0.0000
    57 H57     -6.8223  -6.6382  -6.6688   H         1 RES1   0.0000
    58 C58     -6.4315  -4.7193  -9.4212   C.ar      1 RES1   0.0000
    59 H59     -6.8095  -4.6257 -10.4339   H         1 RES1   0.0000
    60 C60     -5.0037  -3.9703  -7.6638   C.ar      1 RES1   0.0000
    61 H61     -4.2522  -3.2863  -7.2837   H         1 RES1   0.0000
    62 C62     -5.4889  -4.9751  -6.8438   C.ar      1 RES1   0.0000
    63 H63     -5.1158  -5.0723  -5.8297   H         1 RES1   0.0000
    64 C64     -6.9149  -5.7239  -8.6002   C.ar      1 RES1   0.0000
    65 H65     -7.6665  -6.4121  -8.9723   H         1 RES1   0.0000
@<TRIPOS>BOND
     1     1     5   ar
     2     1     6   ar
     3     1     2    1
     4     3     8   ar
     5     3     9   ar
     6     3     4    1
     7     5     9   ar
     8     5    11    1
     9     6     8   ar
    10     6     7    1
    11     8    12    1
    12     9    10    1
    13    11    20    2
    14    11    23    1
    15    13    14    1
    16    13    23   am
    17    13    24    1
    18    14    31    1
    19    14    34    1
    20    14    15    1
    21    16    24    1
    22    16    17    1
    23    16    18    1
    24    16    19    1
    25    20    21    1
    26    20    24    1
    27    21    40   ar
    28    21    45   ar
    29    22    23    2
    30    25    34    1
    31    25    37    1
    32    25    26    1
    33    25    27    1
    34    28    31    1
    35    28    37    1
    36    28    29    1
    37    28    30    1
    38    31    32    1
    39    31    33    1
    40    34    35    1
    41    34    36    1
    42    37    38    1
    43    37    39    1
    44    40    47   ar
    45    41    45   ar
    46    41    48   ar
    47    41    42    1
    48    43    47    1
    49    43    49    1
    50    43    44    1
    51    45    46    1
    52    47    48   ar
    53    49    51    1
    54    49    52    1
    55    49    50    1
    56    51    58   ar
    57    51    60   ar
    58    52    53    1
    59    52    54    1
    60    52    55    1
    61    56    62   ar
    62    56    64   ar
    63    56    57    1
    64    58    64   ar
    65    58    59    1
    66    60    62   ar
    67    60    61    1
    68    62    63    1
    69    64    65    1
@<TRIPOS>SUBSTRUCTURE
     1 RES1        1 GROUP             0 ****  ****    0  
@<TRIPOS>MOLECULE
LIGAND_00475
    65    69     1     0     0
SMALL
USER_CHARGES
****
Generated from the CSD

@<TRIPOS>ATOM
     1 C1       0.1312  -3.5487 -14.7744   C.ar      1 RES1   0.0000
     2 H2      -0.9438  -3.4593 -14.8882   H         1 RES1   0.0000
     3 C3       2.8690  -3.7382 -14.4578   C.ar      1 RES1   0.0000
     4 H4       3.9443  -3.8025 -14.3284   H         1 RES1   0.0000
     5 C5       0.6785  -4.7655 -14.3784   C.ar      1 RES1   0.0000
     6 C6       0.9301  -2.4463 -15.0210   C.ar      1 RES1   0.0000
     7 H7       0.4950  -1.5046 -15.3386   H         1 RES1   0.0000
     8 C8       2.2804  -2.5709 -14.8531   C.ar      1 RES1   0.0000
     9 C9       2.0606  -4.8363 -14.2277   C.ar      1 RES1   0.0000
    10 H10      2.5201  -5.7710 -13.9272   H         1 RES1   0.0000
    11 C11     -0.1744  -5.9673 -14.1040   C.2       1 RES1   0.0000
    12 F12      3.0718  -1.4892 -15.0885   F         1 RES1   0.0000
    13 N13     -1.2825  -7.9066 -14.2097   N.am      1 RES1   0.0000
    14 C14     -1.6277  -9.3544 -14.4125   C.3       1 RES1   0.0000
    15 H15     -1.0325  -9.7305 -15.2433   H         1 RES1   0.0000
    16 C16     -3.0841  -7.3926 -12.6298   C.3       1 RES1   0.0000
    17 H17     -3.3439  -6.6648 -11.8638   H         1 RES1   0.0000
    18 H18     -3.7643  -7.2588 -13.4684   H         1 RES1   0.0000
    19 H19     -3.2423  -8.3880 -12.2200   H         1 RES1   0.0000
    20 C20     -1.0688  -6.0097 -13.0848   C.2       1 RES1   0.0000
    21 C21     -1.4087  -4.9383 -12.1137   C.ar      1 RES1   0.0000
    22 O22      0.3603  -7.6242 -15.8045   O.2       1 RES1   0.0000
    23 C23     -0.2697  -7.2004 -14.8444   C.2       1 RES1   0.0000
    24 N24     -1.6944  -7.2237 -13.0555   N.3       1 RES1   0.0000
    25 C25     -1.5948 -11.6419 -13.3669   C.3       1 RES1   0.0000
    26 H26     -1.3751 -12.1872 -12.4502   H         1 RES1   0.0000
    27 H27     -0.9875 -12.0382 -14.1794   H         1 RES1   0.0000
    28 C28     -3.4247 -11.0325 -14.9264   C.3       1 RES1   0.0000
    29 H29     -2.8740 -11.4228 -15.7810   H         1 RES1   0.0000
    30 H30     -4.4936 -11.1466 -15.1006   H         1 RES1   0.0000
    31 C31     -3.1014  -9.5557 -14.7565   C.3       1 RES1   0.0000
    32 H32     -3.3250  -9.0330 -15.6853   H         1 RES1   0.0000
    33 H33     -3.7135  -9.1473 -13.9537   H         1 RES1   0.0000
    34 C34     -1.2748 -10.1705 -13.1684   C.3       1 RES1   0.0000
    35 H35     -1.8475  -9.7936 -12.3223   H         1 RES1   0.0000
    36 H36     -0.2107 -10.0630 -12.9633   H         1 RES1   0.0000
    37 N37     -3.0426 -11.8006 -13.7051   N.4       1 RES1   1.0000
    38 H38     -3.5989 -11.4693 -12.9234   H         1 RES1   0.0000
    39 H39     -3.2349 -12.7844 -13.8644   H         1 RES1   0.0000
    40 N40     -1.0980  -5.1692 -10.8285   N.ar      1 RES1   0.0000
    41 C41     -2.3055  -2.8456 -11.5027   C.ar      1 RES1   0.0000
    42 H42     -2.7847  -1.9129 -11.7813   H         1 RES1   0.0000
    43 N43     -1.1330  -4.4573  -8.6489   N.pl3     1 RES1   0.0000
    44 H44     -0.3537  -5.0820  -8.4423   H         1 RES1   0.0000
    45 C45     -2.0280  -3.7587 -12.5000   C.ar      1 RES1   0.0000
    46 H46     -2.2846  -3.5636 -13.5360   H         1 RES1   0.0000
    47 C47     -1.4239  -4.2187  -9.9377   C.ar      1 RES1   0.0000
    48 N48     -2.0171  -3.0474 -10.2104   N.ar      1 RES1   0.0000
    49 C49     -1.9027  -3.9280  -7.5233   C.3       1 RES1   0.0000
    50 H50     -2.9594  -3.8524  -7.8234   H         1 RES1   0.0000
    51 C51     -1.4245  -2.5559  -7.0906   C.ar      1 RES1   0.0000
    52 C52     -1.7937  -4.9276  -6.3779   C.3       1 RES1   0.0000
    53 H53     -2.3772  -4.5980  -5.5208   H         1 RES1   0.0000
    54 H54     -2.1602  -5.9061  -6.6812   H         1 RES1   0.0000
    55 H55     -0.7587  -5.0370  -6.0607   H         1 RES1   0.0000
    56 C56     -0.5318  -0.0407  -6.2925   C.ar      1 RES1   0.0000
    57 H57     -0.1841   0.9391  -5.9824   H         1 RES1   0.0000
    58 C58     -0.1201  -2.3704  -6.6558   C.ar      1 RES1   0.0000
    59 H59      0.5600  -3.2152  -6.6258   H         1 RES1   0.0000
    60 C60     -2.2756  -1.4597  -7.1165   C.ar      1 RES1   0.0000
    61 H61     -3.3006  -1.5807  -7.4510   H         1 RES1   0.0000
    62 C62     -1.8304  -0.2099  -6.7198   C.ar      1 RES1   0.0000
    63 H63     -2.5067   0.6380  -6.7460   H         1 RES1   0.0000
    64 C64      0.3235  -1.1199  -6.2602   C.ar      1 RES1   0.0000
    65 H65      1.3469  -0.9902  -5.9243   H         1 RES1   0.0000
@<TRIPOS>BOND
     1     1     5   ar
     2     1     6   ar
     3     1     2    1
     4     3     8   ar
     5     3     9   ar
     6     3     4    1
     7     5     9   ar
     8     5    11    1
     9     6     8   ar
    10     6     7    1
    11     8    12    1
    12     9    10    1
    13    11    20    2
    14    11    23    1
    15    13    14    1
    16    13    23   am
    17    13    24    1
    18    14    31    1
    19    14    34    1
    20    14    15    1
    21    16    24    1
    22    16    17    1
    23    16    18    1
    24    16    19    1
    25    20    21    1
    26    20    24    1
    27    21    40   ar
    28    21    45   ar
    29    22    23    2
    30    25    34    1
    31    25    37    1
    32    25    26    1
    33    25    27    1
    34    28    31    1
    35    28    37    1
    36    28    29    1
    37    28    30    1
    38    31    32    1
    39    31    33    1
    40    34    35    1
    41    34    36    1
    42    37    38    1
    43    37    39    1
    44    40    47   ar
    45    41    45   ar
    46    41    48   ar
    47    41    42    1
    48    43    47    1
    49    43    49    1
    50    43    44    1
    51    45    46    1
    52    47    48   ar
    53    49    51    1
    54    49    52    1
    55    49    50    1
    56    51    58   ar
    57    51    60   ar
    58    52    53    1
    59    52    54    1
    60    52    55    1
    61    56    62   ar
    62    56    64   ar
    63    56    57    1
    64    58    64   ar
    65    58    59    1
    66    60    62   ar
    67    60    61    1
    68    62    63    1
    69    64    65    1
@<TRIPOS>SUBSTRUCTURE
     1 RES1        1 GROUP             0 ****  ****    0  
@<TRIPOS>MOLECULE
LIGAND_00476
    65    69     1     0     0
SMALL
USER_CHARGES
****
Generated from the CSD

@<TRIPOS>ATOM
     1 C1       0.3359  -4.0444 -15.7323   C.ar      1 RES1   0.0000
     2 H2      -0.3718  -4.4422 -16.4516   H         1 RES1   0.0000
     3 C3       2.1186  -2.9892 -13.9046   C.ar      1 RES1   0.0000
     4 H4       2.8149  -2.5644 -13.1891   H         1 RES1   0.0000
     5 C5       0.5126  -4.6946 -14.5146   C.ar      1 RES1   0.0000
     6 C6       1.0410  -2.8953 -16.0437   C.ar      1 RES1   0.0000
     7 H7       0.9036  -2.4008 -16.9995   H         1 RES1   0.0000
     8 C8       1.9135  -2.3965 -15.1178   C.ar      1 RES1   0.0000
     9 C9       1.4177  -4.1446 -13.6113   C.ar      1 RES1   0.0000
    10 H10      1.5844  -4.6299 -12.6564   H         1 RES1   0.0000
    11 C11     -0.2467  -5.9380 -14.1617   C.2       1 RES1   0.0000
    12 F12      2.6063  -1.2636 -15.4151   F         1 RES1   0.0000
    13 N13     -1.2406  -7.9410 -14.1570   N.am      1 RES1   0.0000
    14 C14     -1.5106  -9.4109 -14.3092   C.3       1 RES1   0.0000
    15 H15     -0.9491  -9.7701 -15.1704   H         1 RES1   0.0000
    16 C16     -2.9634  -7.4981 -12.4712   C.3       1 RES1   0.0000
    17 H17     -3.2161  -6.7695 -11.7036   H         1 RES1   0.0000
    18 H18     -3.7034  -7.4237 -13.2653   H         1 RES1   0.0000
    19 H19     -3.0343  -8.4914 -12.0331   H         1 RES1   0.0000
    20 C20     -1.0688  -6.0097 -13.0848   C.2       1 RES1   0.0000
    21 C21     -1.4087  -4.9383 -12.1137   C.ar      1 RES1   0.0000
    22 O22      0.2750  -7.5989 -15.8623   O.2       1 RES1   0.0000
    23 C23     -0.3156  -7.1911 -14.8707   C.2       1 RES1   0.0000
    24 N24     -1.6169  -7.2574 -12.9912   N.3       1 RES1   0.0000
    25 C25     -1.2720 -11.6681 -13.2251   C.3       1 RES1   0.0000
    26 H26     -0.9608 -12.1784 -12.3149   H         1 RES1   0.0000
    27 H27     -0.6961 -12.0463 -14.0684   H         1 RES1   0.0000
    28 C28     -3.2328 -11.2030 -14.6711   C.3       1 RES1   0.0000
    29 H29     -2.7164 -11.5797 -15.5528   H         1 RES1   0.0000
    30 H30     -4.3020 -11.3838 -14.7718   H         1 RES1   0.0000
    31 C31     -2.9887  -9.7063 -14.5509   C.3       1 RES1   0.0000
    32 H32     -3.3033  -9.2190 -15.4725   H         1 RES1   0.0000
    33 H33     -3.5708  -9.3164 -13.7171   H         1 RES1   0.0000
    34 C34     -1.0290 -10.1763 -13.0760   C.3       1 RES1   0.0000
    35 H35     -1.5670  -9.8145 -12.2011   H         1 RES1   0.0000
    36 H36      0.0378 -10.0017 -12.9440   H         1 RES1   0.0000
    37 N37     -2.7266 -11.9193 -13.4635   N.4       1 RES1   1.0000
    38 H38     -3.2498 -11.6036 -12.6531   H         1 RES1   0.0000
    39 H39     -2.8693 -12.9161 -13.5911   H         1 RES1   0.0000
    40 N40     -0.6191  -4.8314 -11.0335   N.ar      1 RES1   0.0000
    41 C41     -2.7138  -3.1449 -11.3153   C.ar      1 RES1   0.0000
    42 H42     -3.5526  -2.4677 -11.4379   H         1 RES1   0.0000
    43 N43     -0.1558  -3.7890  -9.0443   N.pl3     1 RES1   0.0000
    44 H44      0.5940  -4.4711  -8.9303   H         1 RES1   0.0000
    45 C45     -2.4926  -4.0918 -12.2950   C.ar      1 RES1   0.0000
    46 H46     -3.1376  -4.1714 -13.1639   H         1 RES1   0.0000
    47 C47     -0.9320  -3.8832 -10.1357   C.ar      1 RES1   0.0000
    48 N48     -1.9515  -3.0164 -10.2217   N.ar      1 RES1   0.0000
    49 C49     -0.3572  -2.8088  -7.9774   C.3       1 RES1   0.0000
    50 H50     -0.8435  -1.9180  -8.4043   H         1 RES1   0.0000
    51 C51      0.9460  -2.3835  -7.3298   C.ar      1 RES1   0.0000
    52 C52     -1.2969  -3.4297  -6.9505   C.3       1 RES1   0.0000
    53 H53     -1.5081  -2.7281  -6.1463   H         1 RES1   0.0000
    54 H54     -2.2416  -3.7121  -7.4105   H         1 RES1   0.0000
    55 H55     -0.8531  -4.3218  -6.5135   H         1 RES1   0.0000
    56 C56      3.3354  -1.6074  -6.1262   C.ar      1 RES1   0.0000
    57 H57      4.2663  -1.3057  -5.6577   H         1 RES1   0.0000
    58 C58      1.1588  -2.5915  -5.9746   C.ar      1 RES1   0.0000
    59 H59      0.3851  -3.0616  -5.3767   H         1 RES1   0.0000
    60 C60      1.9503  -1.7773  -8.0720   C.ar      1 RES1   0.0000
    61 H61      1.8060  -1.6027  -9.1330   H         1 RES1   0.0000
    62 C62      3.1376  -1.3924  -7.4724   C.ar      1 RES1   0.0000
    63 H63      3.9141  -0.9203  -8.0651   H         1 RES1   0.0000
    64 C64      2.3469  -2.2066  -5.3770   C.ar      1 RES1   0.0000
    65 H65      2.4994  -2.3776  -4.3165   H         1 RES1   0.0000
@<TRIPOS>BOND
     1     1     5   ar
     2     1     6   ar
     3     1     2    1
     4     3     8   ar
     5     3     9   ar
     6     3     4    1
     7     5     9   ar
     8     5    11    1
     9     6     8   ar
    10     6     7    1
    11     8    12    1
    12     9    10    1
    13    11    20    2
    14    11    23    1
    15    13    14    1
    16    13    23   am
    17    13    24    1
    18    14    31    1
    19    14    34    1
    20    14    15    1
    21    16    24    1
    22    16    17    1
    23    16    18    1
    24    16    19    1
    25    20    21    1
    26    20    24    1
    27    21    40   ar
    28    21    45   ar
    29    22    23    2
    30    25    34    1
    31    25    37    1
    32    25    26    1
    33    25    27    1
    34    28    31    1
    35    28    37    1
    36    28    29    1
    37    28    30    1
    38    31    32    1
    39    31    33    1
    40    34    35    1
    41    34    36    1
    42    37    38    1
    43    37    39    1
    44    40    47   ar
    45    41    45   ar
    46    41    48   ar
    47    41    42    1
    48    43    47    1
    49    43    49    1
    50    43    44    1
    51    45    46    1
    52    47    48   ar
    53    49    51    1
    54    49    52    1
    55    49    50    1
    56    51    58   ar
    57    51    60   ar
    58    52    53    1
    59    52    54    1
    60    52    55    1
    61    56    62   ar
    62    56    64   ar
    63    56    57    1
    64    58    64   ar
    65    58    59    1
    66    60    62   ar
    67    60    61    1
    68    62    63    1
    69    64    65    1
@<TRIPOS>SUBSTRUCTURE
     1 RES1        1 GROUP             0 ****  ****    0  
@<TRIPOS>MOLECULE
LIGAND_00477
    65    69     1     0     0
SMALL
USER_CHARGES
****
Generated from the CSD

@<TRIPOS>ATOM
     1 C1       0.3359  -4.0444 -15.7323   C.ar      1 RES1   0.0000
     2 H2      -0.3718  -4.4422 -16.4516   H         1 RES1   0.0000
     3 C3       2.1186  -2.9892 -13.9046   C.ar      1 RES1   0.0000
     4 H4       2.8149  -2.5644 -13.1891   H         1 RES1   0.0000
     5 C5       0.5126  -4.6946 -14.5146   C.ar      1 RES1   0.0000
     6 C6       1.0410  -2.8953 -16.0437   C.ar      1 RES1   0.0000
     7 H7       0.9036  -2.4008 -16.9995   H         1 RES1   0.0000
     8 C8       1.9135  -2.3965 -15.1178   C.ar      1 RES1   0.0000
     9 C9       1.4177  -4.1446 -13.6113   C.ar      1 RES1   0.0000
    10 H10      1.5844  -4.6299 -12.6564   H         1 RES1   0.0000
    11 C11     -0.2467  -5.9380 -14.1617   C.2       1 RES1   0.0000
    12 F12      2.6063  -1.2636 -15.4151   F         1 RES1   0.0000
    13 N13     -1.2406  -7.9410 -14.1570   N.am      1 RES1   0.0000
    14 C14     -1.5106  -9.4109 -14.3092   C.3       1 RES1   0.0000
    15 H15     -0.9490  -9.7701 -15.1703   H         1 RES1   0.0000
    16 C16     -2.9634  -7.4981 -12.4712   C.3       1 RES1   0.0000
    17 H17     -3.2162  -6.7695 -11.7036   H         1 RES1   0.0000
    18 H18     -3.7034  -7.4237 -13.2653   H         1 RES1   0.0000
    19 H19     -3.0343  -8.4914 -12.0331   H         1 RES1   0.0000
    20 C20     -1.0688  -6.0097 -13.0848   C.2       1 RES1   0.0000
    21 C21     -1.4087  -4.9383 -12.1137   C.ar      1 RES1   0.0000
    22 O22      0.2750  -7.5989 -15.8623   O.2       1 RES1   0.0000
    23 C23     -0.3156  -7.1911 -14.8707   C.2       1 RES1   0.0000
    24 N24     -1.6169  -7.2574 -12.9912   N.3       1 RES1   0.0000
    25 C25     -1.2721 -11.6680 -13.2251   C.3       1 RES1   0.0000
    26 H26     -0.9608 -12.1784 -12.3148   H         1 RES1   0.0000
    27 H27     -0.6961 -12.0463 -14.0684   H         1 RES1   0.0000
    28 C28     -3.2328 -11.2030 -14.6712   C.3       1 RES1   0.0000
    29 H29     -2.7163 -11.5797 -15.5528   H         1 RES1   0.0000
    30 H30     -4.3020 -11.3838 -14.7719   H         1 RES1   0.0000
    31 C31     -2.9887  -9.7063 -14.5509   C.3       1 RES1   0.0000
    32 H32     -3.3032  -9.2190 -15.4726   H         1 RES1   0.0000
    33 H33     -3.5708  -9.3164 -13.7172   H         1 RES1   0.0000
    34 C34     -1.0290 -10.1762 -13.0760   C.3       1 RES1   0.0000
    35 H35     -1.5671  -9.8145 -12.2011   H         1 RES1   0.0000
    36 H36      0.0378 -10.0017 -12.9440   H         1 RES1   0.0000
    37 N37     -2.7266 -11.9193 -13.4636   N.4       1 RES1   1.0000
    38 H38     -3.2498 -11.6036 -12.6532   H         1 RES1   0.0000
    39 H39     -2.8693 -12.9161 -13.5911   H         1 RES1   0.0000
    40 N40     -0.6191  -4.8314 -11.0335   N.ar      1 RES1   0.0000
    41 C41     -2.7138  -3.1449 -11.3153   C.ar      1 RES1   0.0000
    42 H42     -3.5526  -2.4677 -11.4379   H         1 RES1   0.0000
    43 N43     -0.1558  -3.7890  -9.0443   N.pl3     1 RES1   0.0000
    44 H44     -0.3533  -3.0406  -8.3801   H         1 RES1   0.0000
    45 C45     -2.4926  -4.0918 -12.2950   C.ar      1 RES1   0.0000
    46 H46     -3.1376  -4.1714 -13.1639   H         1 RES1   0.0000
    47 C47     -0.9320  -3.8832 -10.1357   C.ar      1 RES1   0.0000
    48 N48     -1.9515  -3.0164 -10.2217   N.ar      1 RES1   0.0000
    49 C49      0.9944  -4.6530  -8.7795   C.3       1 RES1   0.0000
    50 H50      0.8289  -5.6220  -9.2753   H         1 RES1   0.0000
    51 C51      1.2040  -4.8984  -7.2981   C.ar      1 RES1   0.0000
    52 C52      2.2206  -3.9935  -9.3997   C.3       1 RES1   0.0000
    53 H53      3.1043  -4.6125  -9.2600   H         1 RES1   0.0000
    54 H54      2.0798  -3.8402 -10.4676   H         1 RES1   0.0000
    55 H55      2.4096  -3.0253  -8.9407   H         1 RES1   0.0000
    56 C56      1.6031  -5.3428  -4.5772   C.ar      1 RES1   0.0000
    57 H57      1.7581  -5.5153  -3.5173   H         1 RES1   0.0000
    58 C58      2.3888  -4.5203  -6.6831   C.ar      1 RES1   0.0000
    59 H59      3.1692  -4.0463  -7.2692   H         1 RES1   0.0000
    60 C60      0.2226  -5.5056  -6.5268   C.ar      1 RES1   0.0000
    61 H61     -0.7115  -5.8116  -6.9860   H         1 RES1   0.0000
    62 C62      0.4222  -5.7256  -5.1743   C.ar      1 RES1   0.0000
    63 H63     -0.3540  -6.2007  -4.5838   H         1 RES1   0.0000
    64 C64      2.5864  -4.7403  -5.3305   C.ar      1 RES1   0.0000
    65 H65      3.5176  -4.4374  -4.8635   H         1 RES1   0.0000
@<TRIPOS>BOND
     1     1     5   ar
     2     1     6   ar
     3     1     2    1
     4     3     8   ar
     5     3     9   ar
     6     3     4    1
     7     5     9   ar
     8     5    11    1
     9     6     8   ar
    10     6     7    1
    11     8    12    1
    12     9    10    1
    13    11    20    2
    14    11    23    1
    15    13    14    1
    16    13    23   am
    17    13    24    1
    18    14    31    1
    19    14    34    1
    20    14    15    1
    21    16    24    1
    22    16    17    1
    23    16    18    1
    24    16    19    1
    25    20    21    1
    26    20    24    1
    27    21    40   ar
    28    21    45   ar
    29    22    23    2
    30    25    34    1
    31    25    37    1
    32    25    26    1
    33    25    27    1
    34    28    31    1
    35    28    37    1
    36    28    29    1
    37    28    30    1
    38    31    32    1
    39    31    33    1
    40    34    35    1
    41    34    36    1
    42    37    38    1
    43    37    39    1
    44    40    47   ar
    45    41    45   ar
    46    41    48   ar
    47    41    42    1
    48    43    47    1
    49    43    49    1
    50    43    44    1
    51    45    46    1
    52    47    48   ar
    53    49    51    1
    54    49    52    1
    55    49    50    1
    56    51    58   ar
    57    51    60   ar
    58    52    53    1
    59    52    54    1
    60    52    55    1
    61    56    62   ar
    62    56    64   ar
    63    56    57    1
    64    58    64   ar
    65    58    59    1
    66    60    62   ar
    67    60    61    1
    68    62    63    1
    69    64    65    1
@<TRIPOS>SUBSTRUCTURE
     1 RES1        1 GROUP             0 ****  ****    0  
@<TRIPOS>MOLECULE
LIGAND_00478
    65    69     1     0     0
SMALL
USER_CHARGES
****
Generated from the CSD

@<TRIPOS>ATOM
     1 C1      -0.1313  -3.4938 -14.7980   C.ar      1 RES1   0.0000
     2 H2      -1.2144  -3.4482 -14.7628   H         1 RES1   0.0000
     3 C3       2.6295  -3.5726 -14.8604   C.ar      1 RES1   0.0000
     4 H4       3.7141  -3.5935 -14.8797   H         1 RES1   0.0000
     5 C5       0.5126  -4.6946 -14.5146   C.ar      1 RES1   0.0000
     6 C6       0.5824  -2.3527 -15.1190   C.ar      1 RES1   0.0000
     7 H7       0.0712  -1.4236 -15.3478   H         1 RES1   0.0000
     8 C8       1.9469  -2.4229 -15.1390   C.ar      1 RES1   0.0000
     9 C9       1.9040  -4.7094 -14.5545   C.ar      1 RES1   0.0000
    10 H10      2.4368  -5.6301 -14.3457   H         1 RES1   0.0000
    11 C11     -0.2467  -5.9380 -14.1617   C.2       1 RES1   0.0000
    12 F12      2.6554  -1.3031 -15.4485   F         1 RES1   0.0000
    13 N13     -1.2406  -7.9410 -14.1570   N.am      1 RES1   0.0000
    14 C14     -1.5106  -9.4109 -14.3092   C.3       1 RES1   0.0000
    15 H15     -0.9490  -9.7701 -15.1703   H         1 RES1   0.0000
    16 C16     -2.9634  -7.4981 -12.4712   C.3       1 RES1   0.0000
    17 H17     -3.2162  -6.7695 -11.7036   H         1 RES1   0.0000
    18 H18     -3.7034  -7.4237 -13.2653   H         1 RES1   0.0000
    19 H19     -3.0343  -8.4914 -12.0331   H         1 RES1   0.0000
    20 C20     -1.0688  -6.0097 -13.0848   C.2       1 RES1   0.0000
    21 C21     -1.4087  -4.9383 -12.1137   C.ar      1 RES1   0.0000
    22 O22      0.2750  -7.5989 -15.8623   O.2       1 RES1   0.0000
    23 C23     -0.3156  -7.1911 -14.8707   C.2       1 RES1   0.0000
    24 N24     -1.6169  -7.2574 -12.9912   N.3       1 RES1   0.0000
    25 C25     -1.2721 -11.6680 -13.2251   C.3       1 RES1   0.0000
    26 H26     -0.9608 -12.1784 -12.3148   H         1 RES1   0.0000
    27 H27     -0.6961 -12.0463 -14.0684   H         1 RES1   0.0000
    28 C28     -3.2328 -11.2030 -14.6712   C.3       1 RES1   0.0000
    29 H29     -2.7163 -11.5797 -15.5528   H         1 RES1   0.0000
    30 H30     -4.3020 -11.3838 -14.7719   H         1 RES1   0.0000
    31 C31     -2.9887  -9.7063 -14.5509   C.3       1 RES1   0.0000
    32 H32     -3.3032  -9.2190 -15.4726   H         1 RES1   0.0000
    33 H33     -3.5708  -9.3164 -13.7172   H         1 RES1   0.0000
    34 C34     -1.0290 -10.1762 -13.0760   C.3       1 RES1   0.0000
    35 H35     -1.5671  -9.8145 -12.2011   H         1 RES1   0.0000
    36 H36      0.0378 -10.0017 -12.9440   H         1 RES1   0.0000
    37 N37     -2.7266 -11.9193 -13.4636   N.4       1 RES1   1.0000
    38 H38     -3.2498 -11.6036 -12.6532   H         1 RES1   0.0000
    39 H39     -2.8693 -12.9161 -13.5911   H         1 RES1   0.0000
    40 N40     -0.6191  -4.8314 -11.0335   N.ar      1 RES1   0.0000
    41 C41     -2.7138  -3.1449 -11.3153   C.ar      1 RES1   0.0000
    42 H42     -3.5526  -2.4677 -11.4379   H         1 RES1   0.0000
    43 N43     -0.1558  -3.7890  -9.0443   N.pl3     1 RES1   0.0000
    44 H44     -0.3533  -3.0406  -8.3801   H         1 RES1   0.0000
    45 C45     -2.4926  -4.0918 -12.2950   C.ar      1 RES1   0.0000
    46 H46     -3.1376  -4.1714 -13.1639   H         1 RES1   0.0000
    47 C47     -0.9320  -3.8832 -10.1357   C.ar      1 RES1   0.0000
    48 N48     -1.9515  -3.0164 -10.2217   N.ar      1 RES1   0.0000
    49 C49      0.9944  -4.6530  -8.7795   C.3       1 RES1   0.0000
    50 H50      0.8289  -5.6220  -9.2753   H         1 RES1   0.0000
    51 C51      1.2040  -4.8984  -7.2981   C.ar      1 RES1   0.0000
    52 C52      2.2206  -3.9935  -9.3997   C.3       1 RES1   0.0000
    53 H53      3.1043  -4.6125  -9.2600   H         1 RES1   0.0000
    54 H54      2.0798  -3.8402 -10.4676   H         1 RES1   0.0000
    55 H55      2.4096  -3.0253  -8.9407   H         1 RES1   0.0000
    56 C56      1.6031  -5.3428  -4.5772   C.ar      1 RES1   0.0000
    57 H57      1.7581  -5.5153  -3.5173   H         1 RES1   0.0000
    58 C58      2.3888  -4.5203  -6.6831   C.ar      1 RES1   0.0000
    59 H59      3.1692  -4.0463  -7.2692   H         1 RES1   0.0000
    60 C60      0.2226  -5.5056  -6.5268   C.ar      1 RES1   0.0000
    61 H61     -0.7115  -5.8116  -6.9860   H         1 RES1   0.0000
    62 C62      0.4222  -5.7256  -5.1743   C.ar      1 RES1   0.0000
    63 H63     -0.3540  -6.2007  -4.5838   H         1 RES1   0.0000
    64 C64      2.5864  -4.7403  -5.3305   C.ar      1 RES1   0.0000
    65 H65      3.5176  -4.4374  -4.8635   H         1 RES1   0.0000
@<TRIPOS>BOND
     1     1     5   ar
     2     1     6   ar
     3     1     2    1
     4     3     8   ar
     5     3     9   ar
     6     3     4    1
     7     5     9   ar
     8     5    11    1
     9     6     8   ar
    10     6     7    1
    11     8    12    1
    12     9    10    1
    13    11    20    2
    14    11    23    1
    15    13    14    1
    16    13    23   am
    17    13    24    1
    18    14    31    1
    19    14    34    1
    20    14    15    1
    21    16    24    1
    22    16    17    1
    23    16    18    1
    24    16    19    1
    25    20    21    1
    26    20    24    1
    27    21    40   ar
    28    21    45   ar
    29    22    23    2
    30    25    34    1
    31    25    37    1
    32    25    26    1
    33    25    27    1
    34    28    31    1
    35    28    37    1
    36    28    29    1
    37    28    30    1
    38    31    32    1
    39    31    33    1
    40    34    35    1
    41    34    36    1
    42    37    38    1
    43    37    39    1
    44    40    47   ar
    45    41    45   ar
    46    41    48   ar
    47    41    42    1
    48    43    47    1
    49    43    49    1
    50    43    44    1
    51    45    46    1
    52    47    48   ar
    53    49    51    1
    54    49    52    1
    55    49    50    1
    56    51    58   ar
    57    51    60   ar
    58    52    53    1
    59    52    54    1
    60    52    55    1
    61    56    62   ar
    62    56    64   ar
    63    56    57    1
    64    58    64   ar
    65    58    59    1
    66    60    62   ar
    67    60    61    1
    68    62    63    1
    69    64    65    1
@<TRIPOS>SUBSTRUCTURE
     1 RES1        1 GROUP             0 ****  ****    0  
@<TRIPOS>MOLECULE
LIGAND_00479
    65    69     1     0     0
SMALL
USER_CHARGES
****
Generated from the CSD

@<TRIPOS>ATOM
     1 C1       0.3359  -4.0444 -15.7323   C.ar      1 RES1   0.0000
     2 H2      -0.3718  -4.4422 -16.4516   H         1 RES1   0.0000
     3 C3       2.1186  -2.9892 -13.9046   C.ar      1 RES1   0.0000
     4 H4       2.8149  -2.5644 -13.1891   H         1 RES1   0.0000
     5 C5       0.5126  -4.6946 -14.5146   C.ar      1 RES1   0.0000
     6 C6       1.0410  -2.8953 -16.0437   C.ar      1 RES1   0.0000
     7 H7       0.9036  -2.4008 -16.9995   H         1 RES1   0.0000
     8 C8       1.9135  -2.3965 -15.1178   C.ar      1 RES1   0.0000
     9 C9       1.4177  -4.1446 -13.6113   C.ar      1 RES1   0.0000
    10 H10      1.5844  -4.6299 -12.6564   H         1 RES1   0.0000
    11 C11     -0.2467  -5.9380 -14.1617   C.2       1 RES1   0.0000
    12 F12      2.6063  -1.2636 -15.4151   F         1 RES1   0.0000
    13 N13     -1.2406  -7.9410 -14.1570   N.am      1 RES1   0.0000
    14 C14     -1.5106  -9.4109 -14.3092   C.3       1 RES1   0.0000
    15 H15     -0.9491  -9.7701 -15.1704   H         1 RES1   0.0000
    16 C16     -2.9634  -7.4981 -12.4712   C.3       1 RES1   0.0000
    17 H17     -3.2161  -6.7695 -11.7036   H         1 RES1   0.0000
    18 H18     -3.7034  -7.4237 -13.2653   H         1 RES1   0.0000
    19 H19     -3.0343  -8.4914 -12.0331   H         1 RES1   0.0000
    20 C20     -1.0688  -6.0097 -13.0848   C.2       1 RES1   0.0000
    21 C21     -1.4087  -4.9383 -12.1137   C.ar      1 RES1   0.0000
    22 O22      0.2750  -7.5989 -15.8623   O.2       1 RES1   0.0000
    23 C23     -0.3156  -7.1911 -14.8707   C.2       1 RES1   0.0000
    24 N24     -1.6169  -7.2574 -12.9912   N.3       1 RES1   0.0000
    25 C25     -1.2720 -11.6681 -13.2251   C.3       1 RES1   0.0000
    26 H26     -0.9608 -12.1784 -12.3149   H         1 RES1   0.0000
    27 H27     -0.6961 -12.0463 -14.0684   H         1 RES1   0.0000
    28 C28     -3.2328 -11.2030 -14.6711   C.3       1 RES1   0.0000
    29 H29     -2.7164 -11.5797 -15.5528   H         1 RES1   0.0000
    30 H30     -4.3020 -11.3838 -14.7718   H         1 RES1   0.0000
    31 C31     -2.9887  -9.7063 -14.5509   C.3       1 RES1   0.0000
    32 H32     -3.3033  -9.2190 -15.4725   H         1 RES1   0.0000
    33 H33     -3.5708  -9.3164 -13.7171   H         1 RES1   0.0000
    34 C34     -1.0290 -10.1763 -13.0760   C.3       1 RES1   0.0000
    35 H35     -1.5670  -9.8145 -12.2011   H         1 RES1   0.0000
    36 H36      0.0378 -10.0017 -12.9440   H         1 RES1   0.0000
    37 N37     -2.7266 -11.9193 -13.4635   N.4       1 RES1   1.0000
    38 H38     -3.2498 -11.6036 -12.6531   H         1 RES1   0.0000
    39 H39     -2.8693 -12.9161 -13.5911   H         1 RES1   0.0000
    40 N40     -2.4741  -4.1759 -12.4060   N.ar      1 RES1   0.0000
    41 C41     -1.0710  -3.6820 -10.1479   C.ar      1 RES1   0.0000
    42 H42     -0.5068  -3.4933  -9.2404   H         1 RES1   0.0000
    43 N43     -3.8280  -2.4106 -11.8503   N.pl3     1 RES1   0.0000
    44 H44     -4.3082  -2.5782 -12.7344   H         1 RES1   0.0000
    45 C45     -0.6634  -4.7173 -10.9648   C.ar      1 RES1   0.0000
    46 H46      0.2002  -5.3270 -10.7208   H         1 RES1   0.0000
    47 C47     -2.7755  -3.1875 -11.5485   C.ar      1 RES1   0.0000
    48 N48     -2.1231  -2.8969 -10.4135   N.ar      1 RES1   0.0000
    49 C49     -4.2904  -1.2982 -11.0206   C.3       1 RES1   0.0000
    50 H50     -4.0213  -1.5042  -9.9731   H         1 RES1   0.0000
    51 C51     -5.7912  -1.1003 -11.1034   C.ar      1 RES1   0.0000
    52 C52     -3.5513  -0.0447 -11.4742   C.3       1 RES1   0.0000
    53 H53     -3.8344   0.8119 -10.8661   H         1 RES1   0.0000
    54 H54     -2.4747  -0.1782 -11.3911   H         1 RES1   0.0000
    55 H55     -3.7850   0.1848 -12.5117   H         1 RES1   0.0000
    56 C56     -8.5467  -0.7224 -11.2610   C.ar      1 RES1   0.0000
    57 H57     -9.6199  -0.5756 -11.3230   H         1 RES1   0.0000
    58 C58     -6.3185   0.0990 -11.5600   C.ar      1 RES1   0.0000
    59 H59     -5.6496   0.8993 -11.8588   H         1 RES1   0.0000
    60 C60     -6.6685  -2.1072 -10.7244   C.ar      1 RES1   0.0000
    61 H61     -6.2795  -3.0531 -10.3625   H         1 RES1   0.0000
    62 C62     -8.0379  -1.9180 -10.8036   C.ar      1 RES1   0.0000
    63 H63     -8.7115  -2.7141 -10.5046   H         1 RES1   0.0000
    64 C64     -7.6881   0.2861 -11.6393   C.ar      1 RES1   0.0000
    65 H65     -8.0854   1.2290 -12.0001   H         1 RES1   0.0000
@<TRIPOS>BOND
     1     1     5   ar
     2     1     6   ar
     3     1     2    1
     4     3     8   ar
     5     3     9   ar
     6     3     4    1
     7     5     9   ar
     8     5    11    1
     9     6     8   ar
    10     6     7    1
    11     8    12    1
    12     9    10    1
    13    11    20    2
    14    11    23    1
    15    13    14    1
    16    13    23   am
    17    13    24    1
    18    14    31    1
    19    14    34    1
    20    14    15    1
    21    16    24    1
    22    16    17    1
    23    16    18    1
    24    16    19    1
    25    20    21    1
    26    20    24    1
    27    21    40   ar
    28    21    45   ar
    29    22    23    2
    30    25    34    1
    31    25    37    1
    32    25    26    1
    33    25    27    1
    34    28    31    1
    35    28    37    1
    36    28    29    1
    37    28    30    1
    38    31    32    1
    39    31    33    1
    40    34    35    1
    41    34    36    1
    42    37    38    1
    43    37    39    1
    44    40    47   ar
    45    41    45   ar
    46    41    48   ar
    47    41    42    1
    48    43    47    1
    49    43    49    1
    50    43    44    1
    51    45    46    1
    52    47    48   ar
    53    49    51    1
    54    49    52    1
    55    49    50    1
    56    51    58   ar
    57    51    60   ar
    58    52    53    1
    59    52    54    1
    60    52    55    1
    61    56    62   ar
    62    56    64   ar
    63    56    57    1
    64    58    64   ar
    65    58    59    1
    66    60    62   ar
    67    60    61    1
    68    62    63    1
    69    64    65    1
@<TRIPOS>SUBSTRUCTURE
     1 RES1        1 GROUP             0 ****  ****    0  
@<TRIPOS>MOLECULE
LIGAND_00480
    65    69     1     0     0
SMALL
USER_CHARGES
****
Generated from the CSD

@<TRIPOS>ATOM
     1 C1       0.3359  -4.0444 -15.7323   C.ar      1 RES1   0.0000
     2 H2      -0.3718  -4.4422 -16.4516   H         1 RES1   0.0000
     3 C3       2.1186  -2.9892 -13.9046   C.ar      1 RES1   0.0000
     4 H4       2.8149  -2.5644 -13.1891   H         1 RES1   0.0000
     5 C5       0.5126  -4.6946 -14.5146   C.ar      1 RES1   0.0000
     6 C6       1.0410  -2.8953 -16.0437   C.ar      1 RES1   0.0000
     7 H7       0.9036  -2.4008 -16.9995   H         1 RES1   0.0000
     8 C8       1.9135  -2.3965 -15.1178   C.ar      1 RES1   0.0000
     9 C9       1.4177  -4.1446 -13.6113   C.ar      1 RES1   0.0000
    10 H10      1.5844  -4.6299 -12.6564   H         1 RES1   0.0000
    11 C11     -0.2467  -5.9380 -14.1617   C.2       1 RES1   0.0000
    12 F12      2.6063  -1.2636 -15.4151   F         1 RES1   0.0000
    13 N13     -1.2406  -7.9410 -14.1570   N.am      1 RES1   0.0000
    14 C14     -1.5106  -9.4109 -14.3092   C.3       1 RES1   0.0000
    15 H15     -0.9490  -9.7701 -15.1703   H         1 RES1   0.0000
    16 C16     -2.9634  -7.4981 -12.4712   C.3       1 RES1   0.0000
    17 H17     -3.2162  -6.7695 -11.7036   H         1 RES1   0.0000
    18 H18     -3.7034  -7.4237 -13.2653   H         1 RES1   0.0000
    19 H19     -3.0343  -8.4914 -12.0331   H         1 RES1   0.0000
    20 C20     -1.0688  -6.0097 -13.0848   C.2       1 RES1   0.0000
    21 C21     -1.4087  -4.9383 -12.1137   C.ar      1 RES1   0.0000
    22 O22      0.2750  -7.5989 -15.8623   O.2       1 RES1   0.0000
    23 C23     -0.3156  -7.1911 -14.8707   C.2       1 RES1   0.0000
    24 N24     -1.6169  -7.2574 -12.9912   N.3       1 RES1   0.0000
    25 C25     -1.2721 -11.6680 -13.2251   C.3       1 RES1   0.0000
    26 H26     -0.9608 -12.1784 -12.3148   H         1 RES1   0.0000
    27 H27     -0.6961 -12.0463 -14.0684   H         1 RES1   0.0000
    28 C28     -3.2328 -11.2030 -14.6712   C.3       1 RES1   0.0000
    29 H29     -2.7163 -11.5797 -15.5528   H         1 RES1   0.0000
    30 H30     -4.3020 -11.3838 -14.7719   H         1 RES1   0.0000
    31 C31     -2.9887  -9.7063 -14.5509   C.3       1 RES1   0.0000
    32 H32     -3.3032  -9.2190 -15.4726   H         1 RES1   0.0000
    33 H33     -3.5708  -9.3164 -13.7172   H         1 RES1   0.0000
    34 C34     -1.0290 -10.1762 -13.0760   C.3       1 RES1   0.0000
    35 H35     -1.5671  -9.8145 -12.2011   H         1 RES1   0.0000
    36 H36      0.0378 -10.0017 -12.9440   H         1 RES1   0.0000
    37 N37     -2.7266 -11.9193 -13.4636   N.4       1 RES1   1.0000
    38 H38     -3.2498 -11.6036 -12.6532   H         1 RES1   0.0000
    39 H39     -2.8693 -12.9161 -13.5911   H         1 RES1   0.0000
    40 N40     -2.4741  -4.1759 -12.4060   N.ar      1 RES1   0.0000
    41 C41     -1.0710  -3.6820 -10.1479   C.ar      1 RES1   0.0000
    42 H42     -0.5068  -3.4933  -9.2404   H         1 RES1   0.0000
    43 N43     -3.8280  -2.4106 -11.8503   N.pl3     1 RES1   0.0000
    44 H44     -4.0969  -1.6886 -11.1819   H         1 RES1   0.0000
    45 C45     -0.6634  -4.7173 -10.9648   C.ar      1 RES1   0.0000
    46 H46      0.2002  -5.3270 -10.7208   H         1 RES1   0.0000
    47 C47     -2.7755  -3.1875 -11.5485   C.ar      1 RES1   0.0000
    48 N48     -2.1231  -2.8969 -10.4135   N.ar      1 RES1   0.0000
    49 C49     -4.6519  -2.5754 -13.0477   C.3       1 RES1   0.0000
    50 H50     -4.0355  -3.0277 -13.8401   H         1 RES1   0.0000
    51 C51     -5.2016  -1.2575 -13.5569   C.ar      1 RES1   0.0000
    52 C52     -5.7818  -3.5384 -12.7025   C.3       1 RES1   0.0000
    53 H53     -6.4105  -3.7234 -13.5709   H         1 RES1   0.0000
    54 H54     -5.3868  -4.4928 -12.3607   H         1 RES1   0.0000
    55 H55     -6.4079  -3.1286 -11.9126   H         1 RES1   0.0000
    56 C56     -6.2262   1.1589 -14.4906   C.ar      1 RES1   0.0000
    57 H57     -6.6251   2.1003 -14.8535   H         1 RES1   0.0000
    58 C58     -6.5712  -1.0532 -13.6441   C.ar      1 RES1   0.0000
    59 H59     -7.2510  -1.8443 -13.3455   H         1 RES1   0.0000
    60 C60     -4.3533  -0.2308 -13.9481   C.ar      1 RES1   0.0000
    61 H61     -3.2786  -0.3679 -13.8905   H         1 RES1   0.0000
    62 C62     -4.8640   0.9699 -14.4116   C.ar      1 RES1   0.0000
    63 H63     -4.1889   1.7638 -14.7132   H         1 RES1   0.0000
    64 C64     -7.0801   0.1482 -14.1071   C.ar      1 RES1   0.0000
    65 H65     -8.1535   0.2937 -14.1679   H         1 RES1   0.0000
@<TRIPOS>BOND
     1     1     5   ar
     2     1     6   ar
     3     1     2    1
     4     3     8   ar
     5     3     9   ar
     6     3     4    1
     7     5     9   ar
     8     5    11    1
     9     6     8   ar
    10     6     7    1
    11     8    12    1
    12     9    10    1
    13    11    20    2
    14    11    23    1
    15    13    14    1
    16    13    23   am
    17    13    24    1
    18    14    31    1
    19    14    34    1
    20    14    15    1
    21    16    24    1
    22    16    17    1
    23    16    18    1
    24    16    19    1
    25    20    21    1
    26    20    24    1
    27    21    40   ar
    28    21    45   ar
    29    22    23    2
    30    25    34    1
    31    25    37    1
    32    25    26    1
    33    25    27    1
    34    28    31    1
    35    28    37    1
    36    28    29    1
    37    28    30    1
    38    31    32    1
    39    31    33    1
    40    34    35    1
    41    34    36    1
    42    37    38    1
    43    37    39    1
    44    40    47   ar
    45    41    45   ar
    46    41    48   ar
    47    41    42    1
    48    43    47    1
    49    43    49    1
    50    43    44    1
    51    45    46    1
    52    47    48   ar
    53    49    51    1
    54    49    52    1
    55    49    50    1
    56    51    58   ar
    57    51    60   ar
    58    52    53    1
    59    52    54    1
    60    52    55    1
    61    56    62   ar
    62    56    64   ar
    63    56    57    1
    64    58    64   ar
    65    58    59    1
    66    60    62   ar
    67    60    61    1
    68    62    63    1
    69    64    65    1
@<TRIPOS>SUBSTRUCTURE
     1 RES1        1 GROUP             0 ****  ****    0  
@<TRIPOS>MOLECULE
LIGAND_00481
    65    69     1     0     0
SMALL
USER_CHARGES
****
Generated from the CSD

@<TRIPOS>ATOM
     1 C1      -0.1313  -3.4938 -14.7980   C.ar      1 RES1   0.0000
     2 H2      -1.2144  -3.4482 -14.7628   H         1 RES1   0.0000
     3 C3       2.6295  -3.5726 -14.8604   C.ar      1 RES1   0.0000
     4 H4       3.7141  -3.5935 -14.8797   H         1 RES1   0.0000
     5 C5       0.5126  -4.6946 -14.5146   C.ar      1 RES1   0.0000
     6 C6       0.5824  -2.3527 -15.1190   C.ar      1 RES1   0.0000
     7 H7       0.0712  -1.4236 -15.3478   H         1 RES1   0.0000
     8 C8       1.9469  -2.4229 -15.1390   C.ar      1 RES1   0.0000
     9 C9       1.9040  -4.7094 -14.5545   C.ar      1 RES1   0.0000
    10 H10      2.4368  -5.6301 -14.3457   H         1 RES1   0.0000
    11 C11     -0.2467  -5.9380 -14.1617   C.2       1 RES1   0.0000
    12 F12      2.6554  -1.3031 -15.4485   F         1 RES1   0.0000
    13 N13     -1.2406  -7.9410 -14.1570   N.am      1 RES1   0.0000
    14 C14     -1.5106  -9.4109 -14.3092   C.3       1 RES1   0.0000
    15 H15     -0.9490  -9.7701 -15.1703   H         1 RES1   0.0000
    16 C16     -2.9634  -7.4981 -12.4712   C.3       1 RES1   0.0000
    17 H17     -3.2162  -6.7695 -11.7036   H         1 RES1   0.0000
    18 H18     -3.7034  -7.4237 -13.2653   H         1 RES1   0.0000
    19 H19     -3.0343  -8.4914 -12.0331   H         1 RES1   0.0000
    20 C20     -1.0688  -6.0097 -13.0848   C.2       1 RES1   0.0000
    21 C21     -1.4087  -4.9383 -12.1137   C.ar      1 RES1   0.0000
    22 O22      0.2750  -7.5989 -15.8623   O.2       1 RES1   0.0000
    23 C23     -0.3156  -7.1911 -14.8707   C.2       1 RES1   0.0000
    24 N24     -1.6169  -7.2574 -12.9912   N.3       1 RES1   0.0000
    25 C25     -1.2721 -11.6680 -13.2251   C.3       1 RES1   0.0000
    26 H26     -0.9608 -12.1784 -12.3148   H         1 RES1   0.0000
    27 H27     -0.6961 -12.0463 -14.0684   H         1 RES1   0.0000
    28 C28     -3.2328 -11.2030 -14.6712   C.3       1 RES1   0.0000
    29 H29     -2.7163 -11.5797 -15.5528   H         1 RES1   0.0000
    30 H30     -4.3020 -11.3838 -14.7719   H         1 RES1   0.0000
    31 C31     -2.9887  -9.7063 -14.5509   C.3       1 RES1   0.0000
    32 H32     -3.3032  -9.2190 -15.4726   H         1 RES1   0.0000
    33 H33     -3.5708  -9.3164 -13.7172   H         1 RES1   0.0000
    34 C34     -1.0290 -10.1762 -13.0760   C.3       1 RES1   0.0000
    35 H35     -1.5671  -9.8145 -12.2011   H         1 RES1   0.0000
    36 H36      0.0378 -10.0017 -12.9440   H         1 RES1   0.0000
    37 N37     -2.7266 -11.9193 -13.4636   N.4       1 RES1   1.0000
    38 H38     -3.2498 -11.6036 -12.6532   H         1 RES1   0.0000
    39 H39     -2.8693 -12.9161 -13.5911   H         1 RES1   0.0000
    40 N40     -2.4741  -4.1759 -12.4060   N.ar      1 RES1   0.0000
    41 C41     -1.0710  -3.6820 -10.1479   C.ar      1 RES1   0.0000
    42 H42     -0.5068  -3.4933  -9.2404   H         1 RES1   0.0000
    43 N43     -3.8280  -2.4106 -11.8503   N.pl3     1 RES1   0.0000
    44 H44     -4.0969  -1.6886 -11.1819   H         1 RES1   0.0000
    45 C45     -0.6634  -4.7173 -10.9648   C.ar      1 RES1   0.0000
    46 H46      0.2002  -5.3270 -10.7208   H         1 RES1   0.0000
    47 C47     -2.7755  -3.1875 -11.5485   C.ar      1 RES1   0.0000
    48 N48     -2.1231  -2.8969 -10.4135   N.ar      1 RES1   0.0000
    49 C49     -4.6519  -2.5754 -13.0477   C.3       1 RES1   0.0000
    50 H50     -4.0355  -3.0277 -13.8401   H         1 RES1   0.0000
    51 C51     -5.2016  -1.2575 -13.5569   C.ar      1 RES1   0.0000
    52 C52     -5.7818  -3.5384 -12.7025   C.3       1 RES1   0.0000
    53 H53     -6.4105  -3.7234 -13.5709   H         1 RES1   0.0000
    54 H54     -5.3868  -4.4928 -12.3607   H         1 RES1   0.0000
    55 H55     -6.4079  -3.1286 -11.9126   H         1 RES1   0.0000
    56 C56     -6.2262   1.1589 -14.4906   C.ar      1 RES1   0.0000
    57 H57     -6.6251   2.1003 -14.8535   H         1 RES1   0.0000
    58 C58     -6.5712  -1.0532 -13.6441   C.ar      1 RES1   0.0000
    59 H59     -7.2510  -1.8443 -13.3455   H         1 RES1   0.0000
    60 C60     -4.3533  -0.2308 -13.9481   C.ar      1 RES1   0.0000
    61 H61     -3.2786  -0.3679 -13.8905   H         1 RES1   0.0000
    62 C62     -4.8640   0.9699 -14.4116   C.ar      1 RES1   0.0000
    63 H63     -4.1889   1.7638 -14.7132   H         1 RES1   0.0000
    64 C64     -7.0801   0.1482 -14.1071   C.ar      1 RES1   0.0000
    65 H65     -8.1535   0.2937 -14.1679   H         1 RES1   0.0000
@<TRIPOS>BOND
     1     1     5   ar
     2     1     6   ar
     3     1     2    1
     4     3     8   ar
     5     3     9   ar
     6     3     4    1
     7     5     9   ar
     8     5    11    1
     9     6     8   ar
    10     6     7    1
    11     8    12    1
    12     9    10    1
    13    11    20    2
    14    11    23    1
    15    13    14    1
    16    13    23   am
    17    13    24    1
    18    14    31    1
    19    14    34    1
    20    14    15    1
    21    16    24    1
    22    16    17    1
    23    16    18    1
    24    16    19    1
    25    20    21    1
    26    20    24    1
    27    21    40   ar
    28    21    45   ar
    29    22    23    2
    30    25    34    1
    31    25    37    1
    32    25    26    1
    33    25    27    1
    34    28    31    1
    35    28    37    1
    36    28    29    1
    37    28    30    1
    38    31    32    1
    39    31    33    1
    40    34    35    1
    41    34    36    1
    42    37    38    1
    43    37    39    1
    44    40    47   ar
    45    41    45   ar
    46    41    48   ar
    47    41    42    1
    48    43    47    1
    49    43    49    1
    50    43    44    1
    51    45    46    1
    52    47    48   ar
    53    49    51    1
    54    49    52    1
    55    49    50    1
    56    51    58   ar
    57    51    60   ar
    58    52    53    1
    59    52    54    1
    60    52    55    1
    61    56    62   ar
    62    56    64   ar
    63    56    57    1
    64    58    64   ar
    65    58    59    1
    66    60    62   ar
    67    60    61    1
    68    62    63    1
    69    64    65    1
@<TRIPOS>SUBSTRUCTURE
     1 RES1        1 GROUP             0 ****  ****    0  
@<TRIPOS>MOLECULE
LIGAND_00482
    65    69     1     0     0
SMALL
USER_CHARGES
****
Generated from the CSD

@<TRIPOS>ATOM
     1 C1       1.8441  -5.0379 -12.2191   C.ar      1 RES1   0.0000
     2 H2       2.4970  -5.5953 -12.8821   H         1 RES1   0.0000
     3 C3       0.2027  -3.5790 -10.5430   C.ar      1 RES1   0.0000
     4 H4      -0.4357  -2.9969  -9.8867   H         1 RES1   0.0000
     5 C5       0.4676  -5.2285 -12.2948   C.ar      1 RES1   0.0000
     6 C6       2.3989  -4.1464 -11.3179   C.ar      1 RES1   0.0000
     7 H7       3.4738  -4.0118 -11.2596   H         1 RES1   0.0000
     8 C8       1.5605  -3.4377 -10.5042   C.ar      1 RES1   0.0000
     9 C9      -0.3382  -4.4832 -11.4386   C.ar      1 RES1   0.0000
    10 H10     -1.4141  -4.6124 -11.4668   H         1 RES1   0.0000
    11 C11     -0.1481  -6.1878 -13.2684   C.2       1 RES1   0.0000
    12 F12      2.0989  -2.5551  -9.6193   F         1 RES1   0.0000
    13 N13     -1.2430  -7.9394 -14.1569   N.am      1 RES1   0.0000
    14 C14     -1.5160  -9.4086 -14.3106   C.3       1 RES1   0.0000
    15 H15     -1.2250  -9.7027 -15.3179   H         1 RES1   0.0000
    16 C16     -1.3939  -7.1223 -16.4262   C.3       1 RES1   0.0000
    17 H17     -0.7457  -7.0605 -17.2980   H         1 RES1   0.0000
    18 H18     -2.0443  -7.9859 -16.5486   H         1 RES1   0.0000
    19 H19     -2.0158  -6.2299 -16.4015   H         1 RES1   0.0000
    20 C20     -0.0279  -6.1202 -14.6126   C.2       1 RES1   0.0000
    21 C21      0.6269  -5.0726 -15.4374   C.ar      1 RES1   0.0000
    22 O22     -1.1877  -7.8624 -11.8610   O.2       1 RES1   0.0000
    23 C23     -0.9086  -7.3628 -12.9430   C.2       1 RES1   0.0000
    24 N24     -0.6040  -7.2361 -15.1997   N.3       1 RES1   0.0000
    25 C25     -0.9243 -11.7077 -13.4794   C.3       1 RES1   0.0000
    26 H26     -0.3493 -12.2520 -12.7317   H         1 RES1   0.0000
    27 H27     -0.6140 -12.0212 -14.4751   H         1 RES1   0.0000
    28 C28     -3.2323 -11.2418 -14.2595   C.3       1 RES1   0.0000
    29 H29     -2.9900 -11.5540 -15.2743   H         1 RES1   0.0000
    30 H30     -4.2800 -11.4563 -14.0542   H         1 RES1   0.0000
    31 C31     -2.9938  -9.7453 -14.1271   C.3       1 RES1   0.0000
    32 H32     -3.5748  -9.2235 -14.8861   H         1 RES1   0.0000
    33 H33     -3.3131  -9.4199 -13.1382   H         1 RES1   0.0000
    34 C34     -0.6783 -10.2175 -13.3195   C.3       1 RES1   0.0000
    35 H35     -0.9429  -9.9207 -12.3057   H         1 RES1   0.0000
    36 H36      0.3765 -10.0109 -13.4946   H         1 RES1   0.0000
    37 N37     -2.3794 -11.9996 -13.2972   N.4       1 RES1   1.0000
    38 H38     -2.6479 -11.7449 -12.3521   H         1 RES1   0.0000
    39 H39     -2.5332 -12.9932 -13.4365   H         1 RES1   0.0000
    40 N40      1.6492  -5.4674 -16.2125   N.ar      1 RES1   0.0000
    41 C41      0.9175  -2.8643 -16.2094   C.ar      1 RES1   0.0000
    42 H42      0.6145  -1.8224 -16.2076   H         1 RES1   0.0000
    43 N43      3.3019  -4.9139 -17.7026   N.pl3     1 RES1   0.0000
    44 H44      3.7303  -4.2225 -18.3181   H         1 RES1   0.0000
    45 C45      0.2208  -3.7465 -15.4083   C.ar      1 RES1   0.0000
    46 H46     -0.6032  -3.4174 -14.7839   H         1 RES1   0.0000
    47 C47      2.2656  -4.5244 -16.9431   C.ar      1 RES1   0.0000
    48 N48      1.9469  -3.2225 -16.9876   N.ar      1 RES1   0.0000
    49 C49      3.8149  -6.2829 -17.7495   C.3       1 RES1   0.0000
    50 H50      4.6642  -6.3173 -18.4493   H         1 RES1   0.0000
    51 C51      2.7677  -7.2768 -18.2122   C.ar      1 RES1   0.0000
    52 C52      4.3200  -6.6354 -16.3553   C.3       1 RES1   0.0000
    53 H53      4.6948  -7.6564 -16.3270   H         1 RES1   0.0000
    54 H54      5.1269  -5.9699 -16.0557   H         1 RES1   0.0000
    55 H55      3.5198  -6.5483 -15.6233   H         1 RES1   0.0000
    56 C56      0.8400  -9.1061 -19.0476   C.ar      1 RES1   0.0000
    57 H57      0.0887  -9.8180 -19.3732   H         1 RES1   0.0000
    58 C58      2.0034  -7.9748 -17.2883   C.ar      1 RES1   0.0000
    59 H59      2.1588  -7.8063 -16.2278   H         1 RES1   0.0000
    60 C60      2.5515  -7.5129 -19.5629   C.ar      1 RES1   0.0000
    61 H61      3.1383  -6.9803 -20.3040   H         1 RES1   0.0000
    62 C62      1.5927  -8.4221 -19.9767   C.ar      1 RES1   0.0000
    63 H63      1.4342  -8.5959 -21.0358   H         1 RES1   0.0000
    64 C64      1.0446  -8.8830 -17.7038   C.ar      1 RES1   0.0000
    65 H65      0.4535  -9.4198 -16.9694   H         1 RES1   0.0000
@<TRIPOS>BOND
     1     1     5   ar
     2     1     6   ar
     3     1     2    1
     4     3     8   ar
     5     3     9   ar
     6     3     4    1
     7     5     9   ar
     8     5    11    1
     9     6     8   ar
    10     6     7    1
    11     8    12    1
    12     9    10    1
    13    11    20    2
    14    11    23    1
    15    13    14    1
    16    13    23   am
    17    13    24    1
    18    14    31    1
    19    14    34    1
    20    14    15    1
    21    16    24    1
    22    16    17    1
    23    16    18    1
    24    16    19    1
    25    20    21    1
    26    20    24    1
    27    21    40   ar
    28    21    45   ar
    29    22    23    2
    30    25    34    1
    31    25    37    1
    32    25    26    1
    33    25    27    1
    34    28    31    1
    35    28    37    1
    36    28    29    1
    37    28    30    1
    38    31    32    1
    39    31    33    1
    40    34    35    1
    41    34    36    1
    42    37    38    1
    43    37    39    1
    44    40    47   ar
    45    41    45   ar
    46    41    48   ar
    47    41    42    1
    48    43    47    1
    49    43    49    1
    50    43    44    1
    51    45    46    1
    52    47    48   ar
    53    49    51    1
    54    49    52    1
    55    49    50    1
    56    51    58   ar
    57    51    60   ar
    58    52    53    1
    59    52    54    1
    60    52    55    1
    61    56    62   ar
    62    56    64   ar
    63    56    57    1
    64    58    64   ar
    65    58    59    1
    66    60    62   ar
    67    60    61    1
    68    62    63    1
    69    64    65    1
@<TRIPOS>SUBSTRUCTURE
     1 RES1        1 GROUP             0 ****  ****    0  
@<TRIPOS>MOLECULE
LIGAND_00483
    65    69     1     0     0
SMALL
USER_CHARGES
****
Generated from the CSD

@<TRIPOS>ATOM
     1 C1       1.6190  -5.8024 -11.4437   C.ar      1 RES1   0.0000
     2 H2       1.8958  -6.8507 -11.4760   H         1 RES1   0.0000
     3 C3       0.9591  -3.1210 -11.3650   C.ar      1 RES1   0.0000
     4 H4       0.7108  -2.0653 -11.3334   H         1 RES1   0.0000
     5 C5       0.6267  -5.3300 -12.2974   C.ar      1 RES1   0.0000
     6 C6       2.2658  -4.9606 -10.5562   C.ar      1 RES1   0.0000
     7 H7       3.0314  -5.3400  -9.8878   H         1 RES1   0.0000
     8 C8       1.9189  -3.6389 -10.5430   C.ar      1 RES1   0.0000
     9 C9       0.3108  -3.9756 -12.2377   C.ar      1 RES1   0.0000
    10 H10     -0.4624  -3.5762 -12.8841   H         1 RES1   0.0000
    11 C11     -0.0800  -6.2291 -13.2667   C.2       1 RES1   0.0000
    12 F12      2.5547  -2.8040  -9.6766   F         1 RES1   0.0000
    13 N13     -1.2942  -7.9026 -14.1507   N.am      1 RES1   0.0000
    14 C14     -1.6378  -9.3530 -14.3367   C.3       1 RES1   0.0000
    15 H15     -1.4135  -9.6239 -15.3674   H         1 RES1   0.0000
    16 C16     -1.5292  -7.0022 -16.3811   C.3       1 RES1   0.0000
    17 H17     -0.9271  -6.9556 -17.2862   H         1 RES1   0.0000
    18 H18     -2.2341  -7.8245 -16.4855   H         1 RES1   0.0000
    19 H19     -2.0962  -6.0770 -16.3025   H         1 RES1   0.0000
    20 C20     -0.0279  -6.1202 -14.6126   C.2       1 RES1   0.0000
    21 C21      0.6269  -5.0726 -15.4374   C.ar      1 RES1   0.0000
    22 O22     -1.1149  -7.9070 -11.8599   O.2       1 RES1   0.0000
    23 C23     -0.8720  -7.3823 -12.9387   C.2       1 RES1   0.0000
    24 N24     -0.6814  -7.1906 -15.2034   N.3       1 RES1   0.0000
    25 C25     -1.1018 -11.7019 -13.6137   C.3       1 RES1   0.0000
    26 H26     -0.5118 -12.2948 -12.9165   H         1 RES1   0.0000
    27 H27     -0.8585 -11.9933 -14.6344   H         1 RES1   0.0000
    28 C28     -3.4258 -11.1150 -14.2515   C.3       1 RES1   0.0000
    29 H29     -3.2513 -11.4015 -15.2875   H         1 RES1   0.0000
    30 H30     -4.4694 -11.2933 -13.9964   H         1 RES1   0.0000
    31 C31     -3.1167  -9.6349 -14.0840   C.3       1 RES1   0.0000
    32 H32     -3.7143  -9.0638 -14.7929   H         1 RES1   0.0000
    33 H33     -3.3689  -9.3311 -13.0691   H         1 RES1   0.0000
    34 C34     -0.7840 -10.2295 -13.4194   C.3       1 RES1   0.0000
    35 H35     -0.9815  -9.9573 -12.3836   H         1 RES1   0.0000
    36 H36      0.2678 -10.0604 -13.6450   H         1 RES1   0.0000
    37 N37     -2.5564 -11.9399 -13.3620   N.4       1 RES1   1.0000
    38 H38     -2.7631 -11.7073 -12.3959   H         1 RES1   0.0000
    39 H39     -2.7598 -12.9209 -13.5248   H         1 RES1   0.0000
    40 N40      1.6492  -5.4674 -16.2125   N.ar      1 RES1   0.0000
    41 C41      0.9175  -2.8643 -16.2094   C.ar      1 RES1   0.0000
    42 H42      0.6145  -1.8224 -16.2076   H         1 RES1   0.0000
    43 N43      3.3019  -4.9139 -17.7026   N.pl3     1 RES1   0.0000
    44 H44      3.7320  -4.2218 -18.3161   H         1 RES1   0.0000
    45 C45      0.2208  -3.7465 -15.4083   C.ar      1 RES1   0.0000
    46 H46     -0.6032  -3.4174 -14.7839   H         1 RES1   0.0000
    47 C47      2.2656  -4.5244 -16.9431   C.ar      1 RES1   0.0000
    48 N48      1.9469  -3.2225 -16.9876   N.ar      1 RES1   0.0000
    49 C49      3.8126  -6.2837 -17.7522   C.3       1 RES1   0.0000
    50 H50      4.6619  -6.3181 -18.4520   H         1 RES1   0.0000
    51 C51      2.7638  -7.2749 -18.2170   C.ar      1 RES1   0.0000
    52 C52      4.3170  -6.6398 -16.3587   C.3       1 RES1   0.0000
    53 H53      4.6905  -7.6613 -16.3325   H         1 RES1   0.0000
    54 H54      5.1247  -5.9760 -16.0575   H         1 RES1   0.0000
    55 H55      3.5168  -6.5533 -15.6267   H         1 RES1   0.0000
    56 C56      0.8331  -9.0993 -19.0562   C.ar      1 RES1   0.0000
    57 H57      0.0807  -9.8093 -19.3833   H         1 RES1   0.0000
    58 C58      1.9979  -7.9730 -17.2945   C.ar      1 RES1   0.0000
    59 H59      2.1533  -7.8067 -16.2337   H         1 RES1   0.0000
    60 C60      2.5477  -7.5082 -19.5682   C.ar      1 RES1   0.0000
    61 H61      3.1357  -6.9754 -20.3081   H         1 RES1   0.0000
    62 C62      1.5874  -8.4151 -19.9839   C.ar      1 RES1   0.0000
    63 H63      1.4290  -8.5868 -21.0433   H         1 RES1   0.0000
    64 C64      1.0377  -8.8789 -17.7120   C.ar      1 RES1   0.0000
    65 H65      0.4453  -9.4159 -16.9787   H         1 RES1   0.0000
@<TRIPOS>BOND
     1     1     5   ar
     2     1     6   ar
     3     1     2    1
     4     3     8   ar
     5     3     9   ar
     6     3     4    1
     7     5     9   ar
     8     5    11    1
     9     6     8   ar
    10     6     7    1
    11     8    12    1
    12     9    10    1
    13    11    20    2
    14    11    23    1
    15    13    14    1
    16    13    23   am
    17    13    24    1
    18    14    31    1
    19    14    34    1
    20    14    15    1
    21    16    24    1
    22    16    17    1
    23    16    18    1
    24    16    19    1
    25    20    21    1
    26    20    24    1
    27    21    40   ar
    28    21    45   ar
    29    22    23    2
    30    25    34    1
    31    25    37    1
    32    25    26    1
    33    25    27    1
    34    28    31    1
    35    28    37    1
    36    28    29    1
    37    28    30    1
    38    31    32    1
    39    31    33    1
    40    34    35    1
    41    34    36    1
    42    37    38    1
    43    37    39    1
    44    40    47   ar
    45    41    45   ar
    46    41    48   ar
    47    41    42    1
    48    43    47    1
    49    43    49    1
    50    43    44    1
    51    45    46    1
    52    47    48   ar
    53    49    51    1
    54    49    52    1
    55    49    50    1
    56    51    58   ar
    57    51    60   ar
    58    52    53    1
    59    52    54    1
    60    52    55    1
    61    56    62   ar
    62    56    64   ar
    63    56    57    1
    64    58    64   ar
    65    58    59    1
    66    60    62   ar
    67    60    61    1
    68    62    63    1
    69    64    65    1
@<TRIPOS>SUBSTRUCTURE
     1 RES1        1 GROUP             0 ****  ****    0  
@<TRIPOS>MOLECULE
LIGAND_00484
    65    69     1     0     0
SMALL
USER_CHARGES
****
Generated from the CSD

@<TRIPOS>ATOM
     1 C1      -2.4792  -4.2529 -16.4101   C.ar      1 RES1   0.0000
     2 H2      -3.1362  -5.0584 -16.7202   H         1 RES1   0.0000
     3 C3      -0.8426  -2.1729 -15.6183   C.ar      1 RES1   0.0000
     4 H4      -0.2085  -1.3488 -15.3085   H         1 RES1   0.0000
     5 C5      -1.5964  -4.4580 -15.3540   C.ar      1 RES1   0.0000
     6 C6      -2.5412  -3.0390 -17.0712   C.ar      1 RES1   0.0000
     7 H7      -3.2258  -2.8917 -17.8997   H         1 RES1   0.0000
     8 C8      -1.7208  -2.0288 -16.6544   C.ar      1 RES1   0.0000
     9 C9      -0.7809  -3.3954 -14.9750   C.ar      1 RES1   0.0000
    10 H10     -0.0770  -3.5235 -14.1606   H         1 RES1   0.0000
    11 C11     -1.5206  -5.7662 -14.6259   C.2       1 RES1   0.0000
    12 F12     -1.7802  -0.8304 -17.2963   F         1 RES1   0.0000
    13 N13     -1.3114  -7.9562 -14.1607   N.am      1 RES1   0.0000
    14 C14     -1.6595  -9.4046 -14.3547   C.3       1 RES1   0.0000
    15 H15     -1.3266  -9.7019 -15.3481   H         1 RES1   0.0000
    16 C16     -1.1004  -7.7688 -11.7605   C.3       1 RES1   0.0000
    17 H17     -1.7557  -8.4612 -11.2360   H         1 RES1   0.0000
    18 H18     -0.1684  -8.2855 -11.9802   H         1 RES1   0.0000
    19 H19     -0.8791  -6.9388 -11.0929   H         1 RES1   0.0000
    20 C20     -1.7513  -5.9390 -13.3057   C.2       1 RES1   0.0000
    21 C21     -2.0254  -4.9138 -12.2663   C.ar      1 RES1   0.0000
    22 O22     -1.0792  -7.3834 -16.3739   O.2       1 RES1   0.0000
    23 C23     -1.2553  -7.0526 -15.2086   C.2       1 RES1   0.0000
    24 N24     -1.7311  -7.2889 -12.9907   N.3       1 RES1   0.0000
    25 C25     -1.2523 -11.7453 -13.5289   C.3       1 RES1   0.0000
    26 H26     -0.7552 -12.3323 -12.7580   H         1 RES1   0.0000
    27 H27     -0.9019 -12.0633 -14.5097   H         1 RES1   0.0000
    28 C28     -3.4789 -11.1344 -14.4349   C.3       1 RES1   0.0000
    29 H29     -3.1952 -11.4467 -15.4388   H         1 RES1   0.0000
    30 H30     -4.5476 -11.2896 -14.2949   H         1 RES1   0.0000
    31 C31     -3.1625  -9.6563 -14.2638   C.3       1 RES1   0.0000
    32 H32     -3.6662  -9.0912 -15.0467   H         1 RES1   0.0000
    33 H33     -3.5206  -9.3258 -13.2899   H         1 RES1   0.0000
    34 C34     -0.9303 -10.2744 -13.3300   C.3       1 RES1   0.0000
    35 H35     -1.2371  -9.9760 -12.3286   H         1 RES1   0.0000
    36 H36      0.1432 -10.1279 -13.4395   H         1 RES1   0.0000
    37 N37     -2.7300 -11.9536 -13.4371   N.4       1 RES1   1.0000
    38 H38     -3.0390 -11.6961 -12.5051   H         1 RES1   0.0000
    39 H39     -2.9326 -12.9345 -13.6017   H         1 RES1   0.0000
    40 N40     -1.1072  -4.7783 -11.2966   N.ar      1 RES1   0.0000
    41 C41     -3.3226  -3.2287 -11.2491   C.ar      1 RES1   0.0000
    42 H42     -4.2112  -2.6061 -11.2397   H         1 RES1   0.0000
    43 N43     -0.4495  -3.7510  -9.3549   N.pl3     1 RES1   0.0000
    44 H44     -0.3108  -2.8280  -8.9437   H         1 RES1   0.0000
    45 C45     -3.1749  -4.1373 -12.2777   C.ar      1 RES1   0.0000
    46 H46     -3.9235  -4.2406 -13.0562   H         1 RES1   0.0000
    47 C47     -1.3567  -3.8727 -10.3371   C.ar      1 RES1   0.0000
    48 N48     -2.4311  -3.0737 -10.2618   N.ar      1 RES1   0.0000
    49 C49      0.3972  -4.8456  -8.8809   C.3       1 RES1   0.0000
    50 H50      0.6197  -5.5117  -9.7289   H         1 RES1   0.0000
    51 C51     -0.2684  -5.6599  -7.7891   C.ar      1 RES1   0.0000
    52 C52      1.7042  -4.2378  -8.3852   C.3       1 RES1   0.0000
    53 H53      2.3882  -5.0142  -8.0491   H         1 RES1   0.0000
    54 H54      2.1941  -3.6740  -9.1764   H         1 RES1   0.0000
    55 H55      1.5222  -3.5630  -7.5514   H         1 RES1   0.0000
    56 C56     -1.4994  -7.1437  -5.7782   C.ar      1 RES1   0.0000
    57 H57     -1.9792  -7.7219  -4.9956   H         1 RES1   0.0000
    58 C58     -1.1772  -5.0673  -6.9243   C.ar      1 RES1   0.0000
    59 H59     -1.4108  -4.0133  -7.0324   H         1 RES1   0.0000
    60 C60      0.0154  -7.0091  -7.6277   C.ar      1 RES1   0.0000
    61 H61      0.7241  -7.4940  -8.2908   H         1 RES1   0.0000
    62 C62     -0.5975  -7.7455  -6.6280   C.ar      1 RES1   0.0000
    63 H63     -0.3664  -8.7994  -6.5142   H         1 RES1   0.0000
    64 C64     -1.7897  -5.8053  -5.9257   C.ar      1 RES1   0.0000
    65 H65     -2.4996  -5.3282  -5.2583   H         1 RES1   0.0000
@<TRIPOS>BOND
     1     1     5   ar
     2     1     6   ar
     3     1     2    1
     4     3     8   ar
     5     3     9   ar
     6     3     4    1
     7     5     9   ar
     8     5    11    1
     9     6     8   ar
    10     6     7    1
    11     8    12    1
    12     9    10    1
    13    11    20    2
    14    11    23    1
    15    13    14    1
    16    13    23   am
    17    13    24    1
    18    14    31    1
    19    14    34    1
    20    14    15    1
    21    16    24    1
    22    16    17    1
    23    16    18    1
    24    16    19    1
    25    20    21    1
    26    20    24    1
    27    21    40   ar
    28    21    45   ar
    29    22    23    2
    30    25    34    1
    31    25    37    1
    32    25    26    1
    33    25    27    1
    34    28    31    1
    35    28    37    1
    36    28    29    1
    37    28    30    1
    38    31    32    1
    39    31    33    1
    40    34    35    1
    41    34    36    1
    42    37    38    1
    43    37    39    1
    44    40    47   ar
    45    41    45   ar
    46    41    48   ar
    47    41    42    1
    48    43    47    1
    49    43    49    1
    50    43    44    1
    51    45    46    1
    52    47    48   ar
    53    49    51    1
    54    49    52    1
    55    49    50    1
    56    51    58   ar
    57    51    60   ar
    58    52    53    1
    59    52    54    1
    60    52    55    1
    61    56    62   ar
    62    56    64   ar
    63    56    57    1
    64    58    64   ar
    65    58    59    1
    66    60    62   ar
    67    60    61    1
    68    62    63    1
    69    64    65    1
@<TRIPOS>SUBSTRUCTURE
     1 RES1        1 GROUP             0 ****  ****    0  
@<TRIPOS>MOLECULE
LIGAND_00485
    65    69     1     0     0
SMALL
USER_CHARGES
****
Generated from the CSD

@<TRIPOS>ATOM
     1 C1      -3.0248  -3.8117 -15.3691   C.ar      1 RES1   0.0000
     2 H2      -3.8579  -4.2218 -14.8086   H         1 RES1   0.0000
     3 C3      -0.9094  -2.7260 -16.7756   C.ar      1 RES1   0.0000
     4 H4      -0.0813  -2.2894 -17.3241   H         1 RES1   0.0000
     5 C5      -1.8085  -4.4880 -15.3803   C.ar      1 RES1   0.0000
     6 C6      -3.1929  -2.6215 -16.0545   C.ar      1 RES1   0.0000
     7 H7      -4.1477  -2.1065 -16.0477   H         1 RES1   0.0000
     8 C8      -2.1271  -2.1087 -16.7387   C.ar      1 RES1   0.0000
     9 C9      -0.7584  -3.9218 -16.0977   C.ar      1 RES1   0.0000
    10 H10      0.2005  -4.4262 -16.1329   H         1 RES1   0.0000
    11 C11     -1.6101  -5.7761 -14.6397   C.2       1 RES1   0.0000
    12 F12     -2.2837  -0.9357 -17.4105   F         1 RES1   0.0000
    13 N13     -1.2406  -7.9410 -14.1570   N.am      1 RES1   0.0000
    14 C14     -1.5106  -9.4109 -14.3092   C.3       1 RES1   0.0000
    15 H15     -1.2171  -9.7059 -15.3156   H         1 RES1   0.0000
    16 C16     -0.8997  -7.6987 -11.7768   C.3       1 RES1   0.0000
    17 H17     -1.4822  -8.4146 -11.2005   H         1 RES1   0.0000
    18 H18      0.0444  -8.1684 -12.0450   H         1 RES1   0.0000
    19 H19     -0.6845  -6.8442 -11.1387   H         1 RES1   0.0000
    20 C20     -1.7513  -5.9390 -13.3057   C.2       1 RES1   0.0000
    21 C21     -2.0254  -4.9138 -12.2663   C.ar      1 RES1   0.0000
    22 O22     -1.1751  -7.3947 -16.3880   O.2       1 RES1   0.0000
    23 C23     -1.3018  -7.0544 -15.2191   C.2       1 RES1   0.0000
    24 N24     -1.6302  -7.2794 -12.9734   N.3       1 RES1   0.0000
    25 C25     -0.9160 -11.7077 -13.4737   C.3       1 RES1   0.0000
    26 H26     -0.3413 -12.2498 -12.7242   H         1 RES1   0.0000
    27 H27     -0.6031 -12.0220 -14.4683   H         1 RES1   0.0000
    28 C28     -3.2233 -11.2475 -14.2588   C.3       1 RES1   0.0000
    29 H29     -2.9785 -11.5605 -15.2727   H         1 RES1   0.0000
    30 H30     -4.2710 -11.4637 -14.0552   H         1 RES1   0.0000
    31 C31     -2.9880  -9.7502 -14.1281   C.3       1 RES1   0.0000
    32 H32     -3.5686  -9.2307 -14.8889   H         1 RES1   0.0000
    33 H33     -3.3098  -9.4240 -13.1402   H         1 RES1   0.0000
    34 C34     -0.6731 -10.2168 -13.3154   C.3       1 RES1   0.0000
    35 H35     -0.9402  -9.9191 -12.3025   H         1 RES1   0.0000
    36 H36      0.3816 -10.0085 -13.4888   H         1 RES1   0.0000
    37 N37     -2.3708 -12.0022 -13.2938   N.4       1 RES1   1.0000
    38 H38     -2.6415 -11.7467 -12.3495   H         1 RES1   0.0000
    39 H39     -2.5225 -12.9962 -13.4320   H         1 RES1   0.0000
    40 N40     -3.1488  -5.0691 -11.5482   N.ar      1 RES1   0.0000
    41 C41     -1.5487  -2.9443 -11.0618   C.ar      1 RES1   0.0000
    42 H42     -0.8989  -2.0972 -10.8681   H         1 RES1   0.0000
    43 N43     -4.5543  -4.2769  -9.9188   N.pl3     1 RES1   0.0000
    44 H44     -4.9237  -5.2192  -9.7925   H         1 RES1   0.0000
    45 C45     -1.1781  -3.8376 -12.0468   C.ar      1 RES1   0.0000
    46 H46     -0.2689  -3.7025 -12.6231   H         1 RES1   0.0000
    47 C47     -3.4203  -4.1344 -10.6232   C.ar      1 RES1   0.0000
    48 N48     -2.6660  -3.0643 -10.3331   N.ar      1 RES1   0.0000
    49 C49     -5.3271  -3.1604  -9.3748   C.3       1 RES1   0.0000
    50 H50     -5.2296  -2.2999 -10.0547   H         1 RES1   0.0000
    51 C51     -4.8496  -2.7439  -7.9975   C.ar      1 RES1   0.0000
    52 C52     -6.7902  -3.5859  -9.3370   C.3       1 RES1   0.0000
    53 H53     -7.4182  -2.7772  -8.9688   H         1 RES1   0.0000
    54 H54     -7.1397  -3.8610 -10.3299   H         1 RES1   0.0000
    55 H55     -6.9241  -4.4436  -8.6811   H         1 RES1   0.0000
    56 C56     -3.9677  -1.9930  -5.4639   C.ar      1 RES1   0.0000
    57 H57     -3.6237  -1.7003  -4.4775   H         1 RES1   0.0000
    58 C58     -4.2842  -3.6745  -7.1377   C.ar      1 RES1   0.0000
    59 H59     -4.1848  -4.7070  -7.4559   H         1 RES1   0.0000
    60 C60     -4.9682  -1.4301  -7.5653   C.ar      1 RES1   0.0000
    61 H61     -5.4087  -0.6850  -8.2194   H         1 RES1   0.0000
    62 C62     -4.5291  -1.0583  -6.3058   C.ar      1 RES1   0.0000
    63 H63     -4.6275  -0.0276  -5.9817   H         1 RES1   0.0000
    64 C64     -3.8450  -3.3007  -5.8790   C.ar      1 RES1   0.0000
    65 H65     -3.4033  -4.0395  -5.2186   H         1 RES1   0.0000
@<TRIPOS>BOND
     1     1     5   ar
     2     1     6   ar
     3     1     2    1
     4     3     8   ar
     5     3     9   ar
     6     3     4    1
     7     5     9   ar
     8     5    11    1
     9     6     8   ar
    10     6     7    1
    11     8    12    1
    12     9    10    1
    13    11    20    2
    14    11    23    1
    15    13    14    1
    16    13    23   am
    17    13    24    1
    18    14    31    1
    19    14    34    1
    20    14    15    1
    21    16    24    1
    22    16    17    1
    23    16    18    1
    24    16    19    1
    25    20    21    1
    26    20    24    1
    27    21    40   ar
    28    21    45   ar
    29    22    23    2
    30    25    34    1
    31    25    37    1
    32    25    26    1
    33    25    27    1
    34    28    31    1
    35    28    37    1
    36    28    29    1
    37    28    30    1
    38    31    32    1
    39    31    33    1
    40    34    35    1
    41    34    36    1
    42    37    38    1
    43    37    39    1
    44    40    47   ar
    45    41    45   ar
    46    41    48   ar
    47    41    42    1
    48    43    47    1
    49    43    49    1
    50    43    44    1
    51    45    46    1
    52    47    48   ar
    53    49    51    1
    54    49    52    1
    55    49    50    1
    56    51    58   ar
    57    51    60   ar
    58    52    53    1
    59    52    54    1
    60    52    55    1
    61    56    62   ar
    62    56    64   ar
    63    56    57    1
    64    58    64   ar
    65    58    59    1
    66    60    62   ar
    67    60    61    1
    68    62    63    1
    69    64    65    1
@<TRIPOS>SUBSTRUCTURE
     1 RES1        1 GROUP             0 ****  ****    0  
@<TRIPOS>MOLECULE
LIGAND_00486
    65    69     1     0     0
SMALL
USER_CHARGES
****
Generated from the CSD

@<TRIPOS>ATOM
     1 C1      -3.0248  -3.8117 -15.3691   C.ar      1 RES1   0.0000
     2 H2      -3.8579  -4.2218 -14.8086   H         1 RES1   0.0000
     3 C3      -0.9094  -2.7260 -16.7756   C.ar      1 RES1   0.0000
     4 H4      -0.0813  -2.2894 -17.3241   H         1 RES1   0.0000
     5 C5      -1.8085  -4.4880 -15.3803   C.ar      1 RES1   0.0000
     6 C6      -3.1929  -2.6215 -16.0545   C.ar      1 RES1   0.0000
     7 H7      -4.1477  -2.1065 -16.0477   H         1 RES1   0.0000
     8 C8      -2.1271  -2.1087 -16.7387   C.ar      1 RES1   0.0000
     9 C9      -0.7584  -3.9218 -16.0977   C.ar      1 RES1   0.0000
    10 H10      0.2005  -4.4262 -16.1329   H         1 RES1   0.0000
    11 C11     -1.6101  -5.7761 -14.6397   C.2       1 RES1   0.0000
    12 F12     -2.2837  -0.9357 -17.4105   F         1 RES1   0.0000
    13 N13     -1.2406  -7.9410 -14.1570   N.am      1 RES1   0.0000
    14 C14     -1.5106  -9.4109 -14.3092   C.3       1 RES1   0.0000
    15 H15     -1.2171  -9.7059 -15.3156   H         1 RES1   0.0000
    16 C16     -0.8997  -7.6987 -11.7768   C.3       1 RES1   0.0000
    17 H17     -1.4822  -8.4146 -11.2005   H         1 RES1   0.0000
    18 H18      0.0444  -8.1684 -12.0450   H         1 RES1   0.0000
    19 H19     -0.6845  -6.8442 -11.1387   H         1 RES1   0.0000
    20 C20     -1.7513  -5.9390 -13.3057   C.2       1 RES1   0.0000
    21 C21     -2.0254  -4.9138 -12.2663   C.ar      1 RES1   0.0000
    22 O22     -1.1751  -7.3947 -16.3880   O.2       1 RES1   0.0000
    23 C23     -1.3018  -7.0544 -15.2191   C.2       1 RES1   0.0000
    24 N24     -1.6302  -7.2794 -12.9734   N.3       1 RES1   0.0000
    25 C25     -0.9160 -11.7077 -13.4737   C.3       1 RES1   0.0000
    26 H26     -0.3413 -12.2498 -12.7242   H         1 RES1   0.0000
    27 H27     -0.6031 -12.0220 -14.4683   H         1 RES1   0.0000
    28 C28     -3.2233 -11.2475 -14.2588   C.3       1 RES1   0.0000
    29 H29     -2.9785 -11.5605 -15.2727   H         1 RES1   0.0000
    30 H30     -4.2710 -11.4637 -14.0552   H         1 RES1   0.0000
    31 C31     -2.9880  -9.7502 -14.1281   C.3       1 RES1   0.0000
    32 H32     -3.5686  -9.2307 -14.8889   H         1 RES1   0.0000
    33 H33     -3.3098  -9.4240 -13.1402   H         1 RES1   0.0000
    34 C34     -0.6731 -10.2168 -13.3154   C.3       1 RES1   0.0000
    35 H35     -0.9402  -9.9191 -12.3025   H         1 RES1   0.0000
    36 H36      0.3816 -10.0085 -13.4888   H         1 RES1   0.0000
    37 N37     -2.3708 -12.0022 -13.2938   N.4       1 RES1   1.0000
    38 H38     -2.6415 -11.7467 -12.3495   H         1 RES1   0.0000
    39 H39     -2.5225 -12.9962 -13.4320   H         1 RES1   0.0000
    40 N40     -3.1488  -5.0691 -11.5482   N.ar      1 RES1   0.0000
    41 C41     -1.5487  -2.9443 -11.0618   C.ar      1 RES1   0.0000
    42 H42     -0.8989  -2.0972 -10.8681   H         1 RES1   0.0000
    43 N43     -4.5543  -4.2769  -9.9188   N.pl3     1 RES1   0.0000
    44 H44     -4.9929  -3.4361  -9.5432   H         1 RES1   0.0000
    45 C45     -1.1781  -3.8376 -12.0468   C.ar      1 RES1   0.0000
    46 H46     -0.2689  -3.7025 -12.6231   H         1 RES1   0.0000
    47 C47     -3.4203  -4.1344 -10.6232   C.ar      1 RES1   0.0000
    48 N48     -2.6660  -3.0643 -10.3331   N.ar      1 RES1   0.0000
    49 C49     -5.1662  -5.5673  -9.6026   C.3       1 RES1   0.0000
    50 H50     -4.3677  -6.3153  -9.4793   H         1 RES1   0.0000
    51 C51     -6.1085  -6.0423 -10.6912   C.ar      1 RES1   0.0000
    52 C52     -5.9006  -5.4180  -8.2754   C.3       1 RES1   0.0000
    53 H53     -6.3500  -6.3620  -7.9743   H         1 RES1   0.0000
    54 H54     -5.2190  -5.1012  -7.4888   H         1 RES1   0.0000
    55 H55     -6.6928  -4.6766  -8.3560   H         1 RES1   0.0000
    56 C56     -7.8431  -6.9003 -12.6951   C.ar      1 RES1   0.0000
    57 H57     -8.5180  -7.2346 -13.4760   H         1 RES1   0.0000
    58 C58     -6.7960  -5.1271 -11.4752   C.ar      1 RES1   0.0000
    59 H59     -6.6567  -4.0645 -11.3053   H         1 RES1   0.0000
    60 C60     -6.3067  -7.3959 -10.9267   C.ar      1 RES1   0.0000
    61 H61     -5.7814  -8.1303 -10.3252   H         1 RES1   0.0000
    62 C62     -7.1689  -7.8209 -11.9233   C.ar      1 RES1   0.0000
    63 H63     -7.3135  -8.8821 -12.0965   H         1 RES1   0.0000
    64 C64     -7.6572  -5.5538 -12.4718   C.ar      1 RES1   0.0000
    65 H65     -8.1864  -4.8260 -13.0778   H         1 RES1   0.0000
@<TRIPOS>BOND
     1     1     5   ar
     2     1     6   ar
     3     1     2    1
     4     3     8   ar
     5     3     9   ar
     6     3     4    1
     7     5     9   ar
     8     5    11    1
     9     6     8   ar
    10     6     7    1
    11     8    12    1
    12     9    10    1
    13    11    20    2
    14    11    23    1
    15    13    14    1
    16    13    23   am
    17    13    24    1
    18    14    31    1
    19    14    34    1
    20    14    15    1
    21    16    24    1
    22    16    17    1
    23    16    18    1
    24    16    19    1
    25    20    21    1
    26    20    24    1
    27    21    40   ar
    28    21    45   ar
    29    22    23    2
    30    25    34    1
    31    25    37    1
    32    25    26    1
    33    25    27    1
    34    28    31    1
    35    28    37    1
    36    28    29    1
    37    28    30    1
    38    31    32    1
    39    31    33    1
    40    34    35    1
    41    34    36    1
    42    37    38    1
    43    37    39    1
    44    40    47   ar
    45    41    45   ar
    46    41    48   ar
    47    41    42    1
    48    43    47    1
    49    43    49    1
    50    43    44    1
    51    45    46    1
    52    47    48   ar
    53    49    51    1
    54    49    52    1
    55    49    50    1
    56    51    58   ar
    57    51    60   ar
    58    52    53    1
    59    52    54    1
    60    52    55    1
    61    56    62   ar
    62    56    64   ar
    63    56    57    1
    64    58    64   ar
    65    58    59    1
    66    60    62   ar
    67    60    61    1
    68    62    63    1
    69    64    65    1
@<TRIPOS>SUBSTRUCTURE
     1 RES1        1 GROUP             0 ****  ****    0  
@<TRIPOS>MOLECULE
LIGAND_00487
    65    69     1     0     0
SMALL
USER_CHARGES
****
Generated from the CSD

@<TRIPOS>ATOM
     1 C1      -3.0248  -3.8117 -15.3691   C.ar      1 RES1   0.0000
     2 H2      -3.8579  -4.2218 -14.8086   H         1 RES1   0.0000
     3 C3      -0.9094  -2.7260 -16.7756   C.ar      1 RES1   0.0000
     4 H4      -0.0813  -2.2894 -17.3241   H         1 RES1   0.0000
     5 C5      -1.8085  -4.4880 -15.3803   C.ar      1 RES1   0.0000
     6 C6      -3.1929  -2.6215 -16.0545   C.ar      1 RES1   0.0000
     7 H7      -4.1477  -2.1065 -16.0477   H         1 RES1   0.0000
     8 C8      -2.1271  -2.1087 -16.7387   C.ar      1 RES1   0.0000
     9 C9      -0.7584  -3.9218 -16.0977   C.ar      1 RES1   0.0000
    10 H10      0.2005  -4.4262 -16.1329   H         1 RES1   0.0000
    11 C11     -1.6101  -5.7761 -14.6397   C.2       1 RES1   0.0000
    12 F12     -2.2837  -0.9357 -17.4105   F         1 RES1   0.0000
    13 N13     -1.2406  -7.9410 -14.1570   N.am      1 RES1   0.0000
    14 C14     -1.5106  -9.4109 -14.3092   C.3       1 RES1   0.0000
    15 H15     -1.2172  -9.7059 -15.3156   H         1 RES1   0.0000
    16 C16     -0.8997  -7.6987 -11.7768   C.3       1 RES1   0.0000
    17 H17     -1.4821  -8.4148 -11.2006   H         1 RES1   0.0000
    18 H18      0.0445  -8.1682 -12.0450   H         1 RES1   0.0000
    19 H19     -0.6846  -6.8442 -11.1386   H         1 RES1   0.0000
    20 C20     -1.7513  -5.9390 -13.3057   C.2       1 RES1   0.0000
    21 C21     -2.0254  -4.9138 -12.2663   C.ar      1 RES1   0.0000
    22 O22     -1.1751  -7.3947 -16.3880   O.2       1 RES1   0.0000
    23 C23     -1.3018  -7.0544 -15.2191   C.2       1 RES1   0.0000
    24 N24     -1.6302  -7.2794 -12.9734   N.3       1 RES1   0.0000
    25 C25     -0.9159 -11.7077 -13.4738   C.3       1 RES1   0.0000
    26 H26     -0.3412 -12.2498 -12.7243   H         1 RES1   0.0000
    27 H27     -0.6031 -12.0220 -14.4684   H         1 RES1   0.0000
    28 C28     -3.2233 -11.2475 -14.2587   C.3       1 RES1   0.0000
    29 H29     -2.9785 -11.5605 -15.2726   H         1 RES1   0.0000
    30 H30     -4.2710 -11.4637 -14.0550   H         1 RES1   0.0000
    31 C31     -2.9879  -9.7502 -14.1280   C.3       1 RES1   0.0000
    32 H32     -3.5686  -9.2307 -14.8887   H         1 RES1   0.0000
    33 H33     -3.3097  -9.4241 -13.1400   H         1 RES1   0.0000
    34 C34     -0.6730 -10.2168 -13.3155   C.3       1 RES1   0.0000
    35 H35     -0.9400  -9.9191 -12.3026   H         1 RES1   0.0000
    36 H36      0.3817 -10.0084 -13.4890   H         1 RES1   0.0000
    37 N37     -2.3707 -12.0022 -13.2938   N.4       1 RES1   1.0000
    38 H38     -2.6413 -11.7467 -12.3495   H         1 RES1   0.0000
    39 H39     -2.5223 -12.9963 -13.4320   H         1 RES1   0.0000
    40 N40     -3.1488  -5.0691 -11.5482   N.ar      1 RES1   0.0000
    41 C41     -1.5487  -2.9443 -11.0618   C.ar      1 RES1   0.0000
    42 H42     -0.8989  -2.0972 -10.8681   H         1 RES1   0.0000
    43 N43     -4.5543  -4.2769  -9.9188   N.pl3     1 RES1   0.0000
    44 H44     -5.3579  -4.6968 -10.3859   H         1 RES1   0.0000
    45 C45     -1.1781  -3.8376 -12.0468   C.ar      1 RES1   0.0000
    46 H46     -0.2689  -3.7025 -12.6231   H         1 RES1   0.0000
    47 C47     -3.4203  -4.1344 -10.6232   C.ar      1 RES1   0.0000
    48 N48     -2.6660  -3.0643 -10.3331   N.ar      1 RES1   0.0000
    49 C49     -4.7290  -3.8105  -8.5435   C.3       1 RES1   0.0000
    50 H50     -4.1283  -2.8987  -8.4015   H         1 RES1   0.0000
    51 C51     -4.2891  -4.8419  -7.5231   C.ar      1 RES1   0.0000
    52 C52     -6.2000  -3.4564  -8.3587   C.3       1 RES1   0.0000
    53 H53     -6.3816  -3.0710  -7.3576   H         1 RES1   0.0000
    54 H54     -6.5090  -2.6979  -9.0749   H         1 RES1   0.0000
    55 H55     -6.8273  -4.3336  -8.5025   H         1 RES1   0.0000
    56 C56     -3.4846  -6.7485  -5.6582   C.ar      1 RES1   0.0000
    57 H57     -3.1706  -7.4909  -4.9320   H         1 RES1   0.0000
    58 C58     -4.3799  -6.1967  -7.8083   C.ar      1 RES1   0.0000
    59 H59     -4.7693  -6.5172  -8.7689   H         1 RES1   0.0000
    60 C60     -3.7904  -4.4581  -6.2858   C.ar      1 RES1   0.0000
    61 H61     -3.7117  -3.4044  -6.0396   H         1 RES1   0.0000
    62 C62     -3.3905  -5.4069  -5.3600   C.ar      1 RES1   0.0000
    63 H63     -3.0020  -5.0923  -4.3971   H         1 RES1   0.0000
    64 C64     -3.9789  -7.1440  -6.8816   C.ar      1 RES1   0.0000
    65 H65     -4.0543  -8.1997  -7.1198   H         1 RES1   0.0000
@<TRIPOS>BOND
     1     1     5   ar
     2     1     6   ar
     3     1     2    1
     4     3     8   ar
     5     3     9   ar
     6     3     4    1
     7     5     9   ar
     8     5    11    1
     9     6     8   ar
    10     6     7    1
    11     8    12    1
    12     9    10    1
    13    11    20    2
    14    11    23    1
    15    13    14    1
    16    13    23   am
    17    13    24    1
    18    14    31    1
    19    14    34    1
    20    14    15    1
    21    16    24    1
    22    16    17    1
    23    16    18    1
    24    16    19    1
    25    20    21    1
    26    20    24    1
    27    21    40   ar
    28    21    45   ar
    29    22    23    2
    30    25    34    1
    31    25    37    1
    32    25    26    1
    33    25    27    1
    34    28    31    1
    35    28    37    1
    36    28    29    1
    37    28    30    1
    38    31    32    1
    39    31    33    1
    40    34    35    1
    41    34    36    1
    42    37    38    1
    43    37    39    1
    44    40    47   ar
    45    41    45   ar
    46    41    48   ar
    47    41    42    1
    48    43    47    1
    49    43    49    1
    50    43    44    1
    51    45    46    1
    52    47    48   ar
    53    49    51    1
    54    49    52    1
    55    49    50    1
    56    51    58   ar
    57    51    60   ar
    58    52    53    1
    59    52    54    1
    60    52    55    1
    61    56    62   ar
    62    56    64   ar
    63    56    57    1
    64    58    64   ar
    65    58    59    1
    66    60    62   ar
    67    60    61    1
    68    62    63    1
    69    64    65    1
@<TRIPOS>SUBSTRUCTURE
     1 RES1        1 GROUP             0 ****  ****    0  
@<TRIPOS>MOLECULE
LIGAND_00488
    65    69     1     0     0
SMALL
USER_CHARGES
****
Generated from the CSD

@<TRIPOS>ATOM
     1 C1      -3.0659  -4.4415 -16.2865   C.ar      1 RES1   0.0000
     2 H2      -3.6943  -5.3098 -16.4525   H         1 RES1   0.0000
     3 C3      -1.5034  -2.2042 -15.8564   C.ar      1 RES1   0.0000
     4 H4      -0.8990  -1.3192 -15.6872   H         1 RES1   0.0000
     5 C5      -2.0024  -4.5271 -15.3929   C.ar      1 RES1   0.0000
     6 C6      -3.3430  -3.2681 -16.9653   C.ar      1 RES1   0.0000
     7 H7      -4.1684  -3.2138 -17.6673   H         1 RES1   0.0000
     8 C8      -2.5536  -2.1780 -16.7291   C.ar      1 RES1   0.0000
     9 C9      -1.2288  -3.3870 -15.1946   C.ar      1 RES1   0.0000
    10 H10     -0.3885  -3.4213 -14.5106   H         1 RES1   0.0000
    11 C11     -1.6923  -5.7902 -14.6475   C.2       1 RES1   0.0000
    12 F12     -2.8237  -1.0189 -17.3890   F         1 RES1   0.0000
    13 N13     -1.1764  -7.9233 -14.1576   N.am      1 RES1   0.0000
    14 C14     -1.3715  -9.4081 -14.2753   C.3       1 RES1   0.0000
    15 H15     -1.1171  -9.7027 -15.2924   H         1 RES1   0.0000
    16 C16     -0.7206  -7.6241 -11.8031   C.3       1 RES1   0.0000
    17 H17     -1.2298  -8.3617 -11.1863   H         1 RES1   0.0000
    18 H18      0.2324  -8.0451 -12.1169   H         1 RES1   0.0000
    19 H19     -0.5192  -6.7488 -11.1892   H         1 RES1   0.0000
    20 C20     -1.7513  -5.9390 -13.3057   C.2       1 RES1   0.0000
    21 C21     -2.0254  -4.9138 -12.2663   C.ar      1 RES1   0.0000
    22 O22     -1.2631  -7.4104 -16.3958   O.2       1 RES1   0.0000
    23 C23     -1.3448  -7.0587 -15.2262   C.2       1 RES1   0.0000
    24 N24     -1.5374  -7.2652 -12.9630   N.3       1 RES1   0.0000
    25 C25     -0.6047 -11.6548 -13.4438   C.3       1 RES1   0.0000
    26 H26      0.0393 -12.1522 -12.7200   H         1 RES1   0.0000
    27 H27     -0.3293 -11.9674 -14.4499   H         1 RES1   0.0000
    28 C28     -2.9735 -11.3353 -14.1064   C.3       1 RES1   0.0000
    29 H29     -2.7670 -11.6508 -15.1280   H         1 RES1   0.0000
    30 H30     -3.9948 -11.6057 -13.8424   H         1 RES1   0.0000
    31 C31     -2.8156  -9.8255 -14.0085   C.3       1 RES1   0.0000
    32 H32     -3.4649  -9.3511 -14.7429   H         1 RES1   0.0000
    33 H33     -3.1010  -9.5016 -13.0087   H         1 RES1   0.0000
    34 C34     -0.4375 -10.1504 -13.3187   C.3       1 RES1   0.0000
    35 H35     -0.6654  -9.8515 -12.2966   H         1 RES1   0.0000
    36 H36      0.5929  -9.8870 -13.5528   H         1 RES1   0.0000
    37 N37     -2.0289 -12.0261 -13.1800   N.4       1 RES1   1.0000
    38 H38     -2.2618 -11.7707 -12.2257   H         1 RES1   0.0000
    39 H39     -2.1319 -13.0292 -13.2966   H         1 RES1   0.0000
    40 N40     -3.1488  -5.0691 -11.5482   N.ar      1 RES1   0.0000
    41 C41     -1.5487  -2.9443 -11.0618   C.ar      1 RES1   0.0000
    42 H42     -0.8989  -2.0972 -10.8681   H         1 RES1   0.0000
    43 N43     -4.5543  -4.2769  -9.9188   N.pl3     1 RES1   0.0000
    44 H44     -4.9237  -5.2192  -9.7925   H         1 RES1   0.0000
    45 C45     -1.1781  -3.8376 -12.0468   C.ar      1 RES1   0.0000
    46 H46     -0.2689  -3.7025 -12.6231   H         1 RES1   0.0000
    47 C47     -3.4203  -4.1344 -10.6232   C.ar      1 RES1   0.0000
    48 N48     -2.6660  -3.0643 -10.3331   N.ar      1 RES1   0.0000
    49 C49     -5.3271  -3.1604  -9.3748   C.3       1 RES1   0.0000
    50 H50     -5.2296  -2.2999 -10.0547   H         1 RES1   0.0000
    51 C51     -4.8496  -2.7439  -7.9975   C.ar      1 RES1   0.0000
    52 C52     -6.7902  -3.5859  -9.3370   C.3       1 RES1   0.0000
    53 H53     -7.4182  -2.7772  -8.9688   H         1 RES1   0.0000
    54 H54     -7.1397  -3.8610 -10.3299   H         1 RES1   0.0000
    55 H55     -6.9241  -4.4436  -8.6811   H         1 RES1   0.0000
    56 C56     -3.9677  -1.9930  -5.4639   C.ar      1 RES1   0.0000
    57 H57     -3.6237  -1.7003  -4.4775   H         1 RES1   0.0000
    58 C58     -4.2842  -3.6745  -7.1377   C.ar      1 RES1   0.0000
    59 H59     -4.1848  -4.7070  -7.4559   H         1 RES1   0.0000
    60 C60     -4.9682  -1.4301  -7.5653   C.ar      1 RES1   0.0000
    61 H61     -5.4087  -0.6850  -8.2194   H         1 RES1   0.0000
    62 C62     -4.5291  -1.0583  -6.3058   C.ar      1 RES1   0.0000
    63 H63     -4.6275  -0.0276  -5.9817   H         1 RES1   0.0000
    64 C64     -3.8450  -3.3007  -5.8790   C.ar      1 RES1   0.0000
    65 H65     -3.4033  -4.0395  -5.2186   H         1 RES1   0.0000
@<TRIPOS>BOND
     1     1     5   ar
     2     1     6   ar
     3     1     2    1
     4     3     8   ar
     5     3     9   ar
     6     3     4    1
     7     5     9   ar
     8     5    11    1
     9     6     8   ar
    10     6     7    1
    11     8    12    1
    12     9    10    1
    13    11    20    2
    14    11    23    1
    15    13    14    1
    16    13    23   am
    17    13    24    1
    18    14    31    1
    19    14    34    1
    20    14    15    1
    21    16    24    1
    22    16    17    1
    23    16    18    1
    24    16    19    1
    25    20    21    1
    26    20    24    1
    27    21    40   ar
    28    21    45   ar
    29    22    23    2
    30    25    34    1
    31    25    37    1
    32    25    26    1
    33    25    27    1
    34    28    31    1
    35    28    37    1
    36    28    29    1
    37    28    30    1
    38    31    32    1
    39    31    33    1
    40    34    35    1
    41    34    36    1
    42    37    38    1
    43    37    39    1
    44    40    47   ar
    45    41    45   ar
    46    41    48   ar
    47    41    42    1
    48    43    47    1
    49    43    49    1
    50    43    44    1
    51    45    46    1
    52    47    48   ar
    53    49    51    1
    54    49    52    1
    55    49    50    1
    56    51    58   ar
    57    51    60   ar
    58    52    53    1
    59    52    54    1
    60    52    55    1
    61    56    62   ar
    62    56    64   ar
    63    56    57    1
    64    58    64   ar
    65    58    59    1
    66    60    62   ar
    67    60    61    1
    68    62    63    1
    69    64    65    1
@<TRIPOS>SUBSTRUCTURE
     1 RES1        1 GROUP             0 ****  ****    0  
@<TRIPOS>MOLECULE
LIGAND_00489
    65    69     1     0     0
SMALL
USER_CHARGES
****
Generated from the CSD

@<TRIPOS>ATOM
     1 C1      -3.0659  -4.4415 -16.2865   C.ar      1 RES1   0.0000
     2 H2      -3.6943  -5.3098 -16.4525   H         1 RES1   0.0000
     3 C3      -1.5034  -2.2042 -15.8564   C.ar      1 RES1   0.0000
     4 H4      -0.8990  -1.3192 -15.6872   H         1 RES1   0.0000
     5 C5      -2.0024  -4.5271 -15.3929   C.ar      1 RES1   0.0000
     6 C6      -3.3430  -3.2681 -16.9653   C.ar      1 RES1   0.0000
     7 H7      -4.1684  -3.2138 -17.6673   H         1 RES1   0.0000
     8 C8      -2.5536  -2.1780 -16.7291   C.ar      1 RES1   0.0000
     9 C9      -1.2288  -3.3870 -15.1946   C.ar      1 RES1   0.0000
    10 H10     -0.3885  -3.4213 -14.5106   H         1 RES1   0.0000
    11 C11     -1.6923  -5.7902 -14.6475   C.2       1 RES1   0.0000
    12 F12     -2.8237  -1.0189 -17.3890   F         1 RES1   0.0000
    13 N13     -1.1764  -7.9233 -14.1576   N.am      1 RES1   0.0000
    14 C14     -1.3715  -9.4081 -14.2753   C.3       1 RES1   0.0000
    15 H15     -1.1171  -9.7027 -15.2924   H         1 RES1   0.0000
    16 C16     -0.7206  -7.6241 -11.8031   C.3       1 RES1   0.0000
    17 H17     -1.2298  -8.3617 -11.1863   H         1 RES1   0.0000
    18 H18      0.2324  -8.0451 -12.1169   H         1 RES1   0.0000
    19 H19     -0.5192  -6.7488 -11.1892   H         1 RES1   0.0000
    20 C20     -1.7513  -5.9390 -13.3057   C.2       1 RES1   0.0000
    21 C21     -2.0254  -4.9138 -12.2663   C.ar      1 RES1   0.0000
    22 O22     -1.2631  -7.4104 -16.3958   O.2       1 RES1   0.0000
    23 C23     -1.3448  -7.0587 -15.2262   C.2       1 RES1   0.0000
    24 N24     -1.5374  -7.2652 -12.9630   N.3       1 RES1   0.0000
    25 C25     -0.6047 -11.6548 -13.4438   C.3       1 RES1   0.0000
    26 H26      0.0393 -12.1522 -12.7200   H         1 RES1   0.0000
    27 H27     -0.3293 -11.9674 -14.4499   H         1 RES1   0.0000
    28 C28     -2.9735 -11.3353 -14.1064   C.3       1 RES1   0.0000
    29 H29     -2.7670 -11.6508 -15.1280   H         1 RES1   0.0000
    30 H30     -3.9948 -11.6057 -13.8424   H         1 RES1   0.0000
    31 C31     -2.8156  -9.8255 -14.0085   C.3       1 RES1   0.0000
    32 H32     -3.4649  -9.3511 -14.7429   H         1 RES1   0.0000
    33 H33     -3.1010  -9.5016 -13.0087   H         1 RES1   0.0000
    34 C34     -0.4375 -10.1504 -13.3187   C.3       1 RES1   0.0000
    35 H35     -0.6654  -9.8515 -12.2966   H         1 RES1   0.0000
    36 H36      0.5929  -9.8870 -13.5528   H         1 RES1   0.0000
    37 N37     -2.0289 -12.0261 -13.1800   N.4       1 RES1   1.0000
    38 H38     -2.2618 -11.7707 -12.2257   H         1 RES1   0.0000
    39 H39     -2.1319 -13.0292 -13.2966   H         1 RES1   0.0000
    40 N40     -3.1488  -5.0691 -11.5482   N.ar      1 RES1   0.0000
    41 C41     -1.5487  -2.9443 -11.0618   C.ar      1 RES1   0.0000
    42 H42     -0.8989  -2.0972 -10.8681   H         1 RES1   0.0000
    43 N43     -4.5543  -4.2769  -9.9188   N.pl3     1 RES1   0.0000
    44 H44     -4.9929  -3.4361  -9.5432   H         1 RES1   0.0000
    45 C45     -1.1781  -3.8376 -12.0468   C.ar      1 RES1   0.0000
    46 H46     -0.2689  -3.7025 -12.6231   H         1 RES1   0.0000
    47 C47     -3.4203  -4.1344 -10.6232   C.ar      1 RES1   0.0000
    48 N48     -2.6660  -3.0643 -10.3331   N.ar      1 RES1   0.0000
    49 C49     -5.1662  -5.5673  -9.6026   C.3       1 RES1   0.0000
    50 H50     -4.3677  -6.3153  -9.4793   H         1 RES1   0.0000
    51 C51     -6.1085  -6.0423 -10.6912   C.ar      1 RES1   0.0000
    52 C52     -5.9006  -5.4180  -8.2754   C.3       1 RES1   0.0000
    53 H53     -6.3500  -6.3620  -7.9743   H         1 RES1   0.0000
    54 H54     -5.2190  -5.1012  -7.4888   H         1 RES1   0.0000
    55 H55     -6.6928  -4.6766  -8.3560   H         1 RES1   0.0000
    56 C56     -7.8431  -6.9003 -12.6951   C.ar      1 RES1   0.0000
    57 H57     -8.5180  -7.2346 -13.4760   H         1 RES1   0.0000
    58 C58     -6.7960  -5.1271 -11.4752   C.ar      1 RES1   0.0000
    59 H59     -6.6567  -4.0645 -11.3053   H         1 RES1   0.0000
    60 C60     -6.3067  -7.3959 -10.9267   C.ar      1 RES1   0.0000
    61 H61     -5.7814  -8.1303 -10.3252   H         1 RES1   0.0000
    62 C62     -7.1689  -7.8209 -11.9233   C.ar      1 RES1   0.0000
    63 H63     -7.3135  -8.8821 -12.0965   H         1 RES1   0.0000
    64 C64     -7.6572  -5.5538 -12.4718   C.ar      1 RES1   0.0000
    65 H65     -8.1864  -4.8260 -13.0778   H         1 RES1   0.0000
@<TRIPOS>BOND
     1     1     5   ar
     2     1     6   ar
     3     1     2    1
     4     3     8   ar
     5     3     9   ar
     6     3     4    1
     7     5     9   ar
     8     5    11    1
     9     6     8   ar
    10     6     7    1
    11     8    12    1
    12     9    10    1
    13    11    20    2
    14    11    23    1
    15    13    14    1
    16    13    23   am
    17    13    24    1
    18    14    31    1
    19    14    34    1
    20    14    15    1
    21    16    24    1
    22    16    17    1
    23    16    18    1
    24    16    19    1
    25    20    21    1
    26    20    24    1
    27    21    40   ar
    28    21    45   ar
    29    22    23    2
    30    25    34    1
    31    25    37    1
    32    25    26    1
    33    25    27    1
    34    28    31    1
    35    28    37    1
    36    28    29    1
    37    28    30    1
    38    31    32    1
    39    31    33    1
    40    34    35    1
    41    34    36    1
    42    37    38    1
    43    37    39    1
    44    40    47   ar
    45    41    45   ar
    46    41    48   ar
    47    41    42    1
    48    43    47    1
    49    43    49    1
    50    43    44    1
    51    45    46    1
    52    47    48   ar
    53    49    51    1
    54    49    52    1
    55    49    50    1
    56    51    58   ar
    57    51    60   ar
    58    52    53    1
    59    52    54    1
    60    52    55    1
    61    56    62   ar
    62    56    64   ar
    63    56    57    1
    64    58    64   ar
    65    58    59    1
    66    60    62   ar
    67    60    61    1
    68    62    63    1
    69    64    65    1
@<TRIPOS>SUBSTRUCTURE
     1 RES1        1 GROUP             0 ****  ****    0  
@<TRIPOS>MOLECULE
LIGAND_00490
    65    69     1     0     0
SMALL
USER_CHARGES
****
Generated from the CSD

@<TRIPOS>ATOM
     1 C1      -3.0659  -4.4415 -16.2865   C.ar      1 RES1   0.0000
     2 H2      -3.6943  -5.3098 -16.4525   H         1 RES1   0.0000
     3 C3      -1.5034  -2.2042 -15.8564   C.ar      1 RES1   0.0000
     4 H4      -0.8990  -1.3192 -15.6872   H         1 RES1   0.0000
     5 C5      -2.0024  -4.5271 -15.3929   C.ar      1 RES1   0.0000
     6 C6      -3.3430  -3.2681 -16.9653   C.ar      1 RES1   0.0000
     7 H7      -4.1684  -3.2138 -17.6673   H         1 RES1   0.0000
     8 C8      -2.5536  -2.1780 -16.7291   C.ar      1 RES1   0.0000
     9 C9      -1.2287  -3.3870 -15.1946   C.ar      1 RES1   0.0000
    10 H10     -0.3885  -3.4213 -14.5106   H         1 RES1   0.0000
    11 C11     -1.6923  -5.7902 -14.6475   C.2       1 RES1   0.0000
    12 F12     -2.8237  -1.0189 -17.3890   F         1 RES1   0.0000
    13 N13     -1.1764  -7.9233 -14.1576   N.am      1 RES1   0.0000
    14 C14     -1.3715  -9.4081 -14.2753   C.3       1 RES1   0.0000
    15 H15     -1.1171  -9.7027 -15.2924   H         1 RES1   0.0000
    16 C16     -0.7206  -7.6241 -11.8031   C.3       1 RES1   0.0000
    17 H17     -1.2298  -8.3617 -11.1863   H         1 RES1   0.0000
    18 H18      0.2324  -8.0451 -12.1169   H         1 RES1   0.0000
    19 H19     -0.5192  -6.7488 -11.1892   H         1 RES1   0.0000
    20 C20     -1.7513  -5.9390 -13.3057   C.2       1 RES1   0.0000
    21 C21     -2.0254  -4.9138 -12.2663   C.ar      1 RES1   0.0000
    22 O22     -1.2631  -7.4104 -16.3958   O.2       1 RES1   0.0000
    23 C23     -1.3448  -7.0587 -15.2262   C.2       1 RES1   0.0000
    24 N24     -1.5374  -7.2652 -12.9630   N.3       1 RES1   0.0000
    25 C25     -0.6047 -11.6548 -13.4438   C.3       1 RES1   0.0000
    26 H26      0.0392 -12.1522 -12.7200   H         1 RES1   0.0000
    27 H27     -0.3293 -11.9674 -14.4499   H         1 RES1   0.0000
    28 C28     -2.9735 -11.3353 -14.1064   C.3       1 RES1   0.0000
    29 H29     -2.7670 -11.6508 -15.1280   H         1 RES1   0.0000
    30 H30     -3.9948 -11.6057 -13.8424   H         1 RES1   0.0000
    31 C31     -2.8156  -9.8255 -14.0085   C.3       1 RES1   0.0000
    32 H32     -3.4649  -9.3511 -14.7429   H         1 RES1   0.0000
    33 H33     -3.1010  -9.5016 -13.0087   H         1 RES1   0.0000
    34 C34     -0.4375 -10.1504 -13.3187   C.3       1 RES1   0.0000
    35 H35     -0.6654  -9.8515 -12.2966   H         1 RES1   0.0000
    36 H36      0.5929  -9.8870 -13.5528   H         1 RES1   0.0000
    37 N37     -2.0289 -12.0261 -13.1800   N.4       1 RES1   1.0000
    38 H38     -2.2618 -11.7707 -12.2257   H         1 RES1   0.0000
    39 H39     -2.1319 -13.0292 -13.2966   H         1 RES1   0.0000
    40 N40     -3.1488  -5.0691 -11.5482   N.ar      1 RES1   0.0000
    41 C41     -1.5487  -2.9443 -11.0618   C.ar      1 RES1   0.0000
    42 H42     -0.8989  -2.0972 -10.8681   H         1 RES1   0.0000
    43 N43     -4.5543  -4.2769  -9.9188   N.pl3     1 RES1   0.0000
    44 H44     -5.3579  -4.6969 -10.3859   H         1 RES1   0.0000
    45 C45     -1.1781  -3.8376 -12.0468   C.ar      1 RES1   0.0000
    46 H46     -0.2689  -3.7025 -12.6231   H         1 RES1   0.0000
    47 C47     -3.4203  -4.1344 -10.6232   C.ar      1 RES1   0.0000
    48 N48     -2.6660  -3.0643 -10.3331   N.ar      1 RES1   0.0000
    49 C49     -4.7290  -3.8104  -8.5435   C.3       1 RES1   0.0000
    50 H50     -4.1283  -2.8986  -8.4016   H         1 RES1   0.0000
    51 C51     -4.2893  -4.8418  -7.5231   C.ar      1 RES1   0.0000
    52 C52     -6.2000  -3.4562  -8.3588   C.3       1 RES1   0.0000
    53 H53     -6.3816  -3.0707  -7.3577   H         1 RES1   0.0000
    54 H54     -6.5089  -2.6977  -9.0750   H         1 RES1   0.0000
    55 H55     -6.8273  -4.3334  -8.5026   H         1 RES1   0.0000
    56 C56     -3.4849  -6.7483  -5.6580   C.ar      1 RES1   0.0000
    57 H57     -3.1709  -7.4907  -4.9318   H         1 RES1   0.0000
    58 C58     -4.3801  -6.1966  -7.8081   C.ar      1 RES1   0.0000
    59 H59     -4.7695  -6.5171  -8.7688   H         1 RES1   0.0000
    60 C60     -3.7905  -4.4579  -6.2858   C.ar      1 RES1   0.0000
    61 H61     -3.7118  -3.4042  -6.0396   H         1 RES1   0.0000
    62 C62     -3.3908  -5.4067  -5.3599   C.ar      1 RES1   0.0000
    63 H63     -3.0023  -5.0920  -4.3970   H         1 RES1   0.0000
    64 C64     -3.9792  -7.1438  -6.8814   C.ar      1 RES1   0.0000
    65 H65     -4.0546  -8.1996  -7.1196   H         1 RES1   0.0000
@<TRIPOS>BOND
     1     1     5   ar
     2     1     6   ar
     3     1     2    1
     4     3     8   ar
     5     3     9   ar
     6     3     4    1
     7     5     9   ar
     8     5    11    1
     9     6     8   ar
    10     6     7    1
    11     8    12    1
    12     9    10    1
    13    11    20    2
    14    11    23    1
    15    13    14    1
    16    13    23   am
    17    13    24    1
    18    14    31    1
    19    14    34    1
    20    14    15    1
    21    16    24    1
    22    16    17    1
    23    16    18    1
    24    16    19    1
    25    20    21    1
    26    20    24    1
    27    21    40   ar
    28    21    45   ar
    29    22    23    2
    30    25    34    1
    31    25    37    1
    32    25    26    1
    33    25    27    1
    34    28    31    1
    35    28    37    1
    36    28    29    1
    37    28    30    1
    38    31    32    1
    39    31    33    1
    40    34    35    1
    41    34    36    1
    42    37    38    1
    43    37    39    1
    44    40    47   ar
    45    41    45   ar
    46    41    48   ar
    47    41    42    1
    48    43    47    1
    49    43    49    1
    50    43    44    1
    51    45    46    1
    52    47    48   ar
    53    49    51    1
    54    49    52    1
    55    49    50    1
    56    51    58   ar
    57    51    60   ar
    58    52    53    1
    59    52    54    1
    60    52    55    1
    61    56    62   ar
    62    56    64   ar
    63    56    57    1
    64    58    64   ar
    65    58    59    1
    66    60    62   ar
    67    60    61    1
    68    62    63    1
    69    64    65    1
@<TRIPOS>SUBSTRUCTURE
     1 RES1        1 GROUP             0 ****  ****    0  
@<TRIPOS>MOLECULE
LIGAND_00491
    65    69     1     0     0
SMALL
USER_CHARGES
****
Generated from the CSD

@<TRIPOS>ATOM
     1 C1       1.3635  -5.6372 -11.3201   C.ar      1 RES1   0.0000
     2 H2       1.6392  -6.6844 -11.2578   H         1 RES1   0.0000
     3 C3       0.7066  -2.9585 -11.4786   C.ar      1 RES1   0.0000
     4 H4       0.4595  -1.9038 -11.5393   H         1 RES1   0.0000
     5 C5       0.4604  -5.2241 -12.2950   C.ar      1 RES1   0.0000
     6 C6       1.9232  -4.7378 -10.4299   C.ar      1 RES1   0.0000
     7 H7       2.6190  -5.0709  -9.6671   H         1 RES1   0.0000
     8 C8       1.5804  -3.4193 -10.5355   C.ar      1 RES1   0.0000
     9 C9       0.1439  -3.8697 -12.3534   C.ar      1 RES1   0.0000
    10 H10     -0.5615  -3.5154 -13.0964   H         1 RES1   0.0000
    11 C11     -0.1512  -6.1860 -13.2685   C.2       1 RES1   0.0000
    12 F12      2.1313  -2.5282  -9.6669   F         1 RES1   0.0000
    13 N13     -1.2406  -7.9410 -14.1570   N.am      1 RES1   0.0000
    14 C14     -1.5106  -9.4109 -14.3092   C.3       1 RES1   0.0000
    15 H15     -1.2163  -9.7061 -15.3153   H         1 RES1   0.0000
    16 C16     -1.3876  -7.1276 -16.4280   C.3       1 RES1   0.0000
    17 H17     -0.7384  -7.0978 -17.3006   H         1 RES1   0.0000
    18 H18     -2.0590  -7.9772 -16.5346   H         1 RES1   0.0000
    19 H19     -1.9875  -6.2200 -16.4198   H         1 RES1   0.0000
    20 C20     -0.0279  -6.1202 -14.6126   C.2       1 RES1   0.0000
    21 C21      0.6269  -5.0726 -15.4374   C.ar      1 RES1   0.0000
    22 O22     -1.1910  -7.8605 -11.8611   O.2       1 RES1   0.0000
    23 C23     -0.9103  -7.3619 -12.9432   C.2       1 RES1   0.0000
    24 N24     -0.6005  -7.2381 -15.1994   N.3       1 RES1   0.0000
    25 C25     -0.9169 -11.7076 -13.4729   C.3       1 RES1   0.0000
    26 H26     -0.3429 -12.2497 -12.7228   H         1 RES1   0.0000
    27 H27     -0.6032 -12.0221 -14.4672   H         1 RES1   0.0000
    28 C28     -3.2235 -11.2473 -14.2600   C.3       1 RES1   0.0000
    29 H29     -2.9779 -11.5605 -15.2736   H         1 RES1   0.0000
    30 H30     -4.2714 -11.4634 -14.0572   H         1 RES1   0.0000
    31 C31     -2.9881  -9.7501 -14.1293   C.3       1 RES1   0.0000
    32 H32     -3.5681  -9.2306 -14.8907   H         1 RES1   0.0000
    33 H33     -3.3108  -9.4237 -13.1417   H         1 RES1   0.0000
    34 C34     -0.6740 -10.2167 -13.3146   C.3       1 RES1   0.0000
    35 H35     -0.9419  -9.9189 -12.3020   H         1 RES1   0.0000
    36 H36      0.3809 -10.0085 -13.4872   H         1 RES1   0.0000
    37 N37     -2.3719 -12.0020 -13.2941   N.4       1 RES1   1.0000
    38 H38     -2.6434 -11.7463 -12.3501   H         1 RES1   0.0000
    39 H39     -2.5235 -12.9960 -13.4323   H         1 RES1   0.0000
    40 N40      1.9307  -5.2446 -15.7060   N.ar      1 RES1   0.0000
    41 C41      0.6624  -3.0499 -16.6475   C.ar      1 RES1   0.0000
    42 H42      0.1456  -2.1746 -17.0270   H         1 RES1   0.0000
    43 N43      3.8487  -4.4508 -16.6805   N.pl3     1 RES1   0.0000
    44 H44      4.3152  -3.7471 -17.2527   H         1 RES1   0.0000
    45 C45     -0.0596  -3.9606 -15.9027   C.ar      1 RES1   0.0000
    46 H46     -1.1130  -3.8119 -15.6895   H         1 RES1   0.0000
    47 C47      2.5396  -4.2909 -16.4291   C.ar      1 RES1   0.0000
    48 N48      1.9652  -3.1860 -16.9266   N.ar      1 RES1   0.0000
    49 C49      4.6335  -5.6032 -16.2382   C.3       1 RES1   0.0000
    50 H50      4.5273  -5.7041 -15.1469   H         1 RES1   0.0000
    51 C51      6.1062  -5.4608 -16.5687   C.ar      1 RES1   0.0000
    52 C52      4.0457  -6.8442 -16.8998   C.3       1 RES1   0.0000
    53 H53      4.8084  -7.6086 -17.0332   H         1 RES1   0.0000
    54 H54      3.2466  -7.2651 -16.2933   H         1 RES1   0.0000
    55 H55      3.6361  -6.6006 -17.8779   H         1 RES1   0.0000
    56 C56      8.8088  -5.1979 -17.1912   C.ar      1 RES1   0.0000
    57 H57      9.8613  -5.0948 -17.4334   H         1 RES1   0.0000
    58 C58      6.5215  -5.3220 -17.8853   C.ar      1 RES1   0.0000
    59 H59      5.7847  -5.3163 -18.6818   H         1 RES1   0.0000
    60 C60      7.0688  -5.4681 -15.5686   C.ar      1 RES1   0.0000
    61 H61      6.7682  -5.5771 -14.5319   H         1 RES1   0.0000
    62 C62      8.4117  -5.3370 -15.8795   C.ar      1 RES1   0.0000
    63 H63      9.1529  -5.3438 -15.0873   H         1 RES1   0.0000
    64 C64      7.8646  -5.1903 -18.1942   C.ar      1 RES1   0.0000
    65 H65      8.1738  -5.0808 -19.2284   H         1 RES1   0.0000
@<TRIPOS>BOND
     1     1     5   ar
     2     1     6   ar
     3     1     2    1
     4     3     8   ar
     5     3     9   ar
     6     3     4    1
     7     5     9   ar
     8     5    11    1
     9     6     8   ar
    10     6     7    1
    11     8    12    1
    12     9    10    1
    13    11    20    2
    14    11    23    1
    15    13    14    1
    16    13    23   am
    17    13    24    1
    18    14    31    1
    19    14    34    1
    20    14    15    1
    21    16    24    1
    22    16    17    1
    23    16    18    1
    24    16    19    1
    25    20    21    1
    26    20    24    1
    27    21    40   ar
    28    21    45   ar
    29    22    23    2
    30    25    34    1
    31    25    37    1
    32    25    26    1
    33    25    27    1
    34    28    31    1
    35    28    37    1
    36    28    29    1
    37    28    30    1
    38    31    32    1
    39    31    33    1
    40    34    35    1
    41    34    36    1
    42    37    38    1
    43    37    39    1
    44    40    47   ar
    45    41    45   ar
    46    41    48   ar
    47    41    42    1
    48    43    47    1
    49    43    49    1
    50    43    44    1
    51    45    46    1
    52    47    48   ar
    53    49    51    1
    54    49    52    1
    55    49    50    1
    56    51    58   ar
    57    51    60   ar
    58    52    53    1
    59    52    54    1
    60    52    55    1
    61    56    62   ar
    62    56    64   ar
    63    56    57    1
    64    58    64   ar
    65    58    59    1
    66    60    62   ar
    67    60    61    1
    68    62    63    1
    69    64    65    1
@<TRIPOS>SUBSTRUCTURE
     1 RES1        1 GROUP             0 ****  ****    0  
@<TRIPOS>MOLECULE
LIGAND_00492
    65    69     1     0     0
SMALL
USER_CHARGES
****
Generated from the CSD

@<TRIPOS>ATOM
     1 C1       1.8363  -5.0308 -12.2162   C.ar      1 RES1   0.0000
     2 H2       2.4918  -5.5879 -12.8768   H         1 RES1   0.0000
     3 C3       0.1881  -3.5725 -10.5463   C.ar      1 RES1   0.0000
     4 H4      -0.4529  -2.9906  -9.8924   H         1 RES1   0.0000
     5 C5       0.4604  -5.2241 -12.2950   C.ar      1 RES1   0.0000
     6 C6       2.3872  -4.1369 -11.3151   C.ar      1 RES1   0.0000
     7 H7       3.4617  -4.0002 -11.2544   H         1 RES1   0.0000
     8 C8       1.5456  -3.4286 -10.5045   C.ar      1 RES1   0.0000
     9 C9      -0.3489  -4.4790 -11.4419   C.ar      1 RES1   0.0000
    10 H10     -1.4245  -4.6103 -11.4724   H         1 RES1   0.0000
    11 C11     -0.1512  -6.1860 -13.2685   C.2       1 RES1   0.0000
    12 F12      2.0801  -2.5436  -9.6196   F         1 RES1   0.0000
    13 N13     -1.2406  -7.9410 -14.1570   N.am      1 RES1   0.0000
    14 C14     -1.5106  -9.4109 -14.3092   C.3       1 RES1   0.0000
    15 H15     -1.2163  -9.7061 -15.3153   H         1 RES1   0.0000
    16 C16     -1.3876  -7.1276 -16.4280   C.3       1 RES1   0.0000
    17 H17     -0.7384  -7.0978 -17.3006   H         1 RES1   0.0000
    18 H18     -2.0590  -7.9772 -16.5346   H         1 RES1   0.0000
    19 H19     -1.9875  -6.2200 -16.4198   H         1 RES1   0.0000
    20 C20     -0.0279  -6.1202 -14.6126   C.2       1 RES1   0.0000
    21 C21      0.6269  -5.0726 -15.4374   C.ar      1 RES1   0.0000
    22 O22     -1.1910  -7.8605 -11.8611   O.2       1 RES1   0.0000
    23 C23     -0.9103  -7.3619 -12.9432   C.2       1 RES1   0.0000
    24 N24     -0.6005  -7.2381 -15.1994   N.3       1 RES1   0.0000
    25 C25     -0.9169 -11.7076 -13.4729   C.3       1 RES1   0.0000
    26 H26     -0.3429 -12.2497 -12.7228   H         1 RES1   0.0000
    27 H27     -0.6032 -12.0221 -14.4672   H         1 RES1   0.0000
    28 C28     -3.2235 -11.2473 -14.2600   C.3       1 RES1   0.0000
    29 H29     -2.9779 -11.5605 -15.2736   H         1 RES1   0.0000
    30 H30     -4.2714 -11.4634 -14.0572   H         1 RES1   0.0000
    31 C31     -2.9881  -9.7501 -14.1293   C.3       1 RES1   0.0000
    32 H32     -3.5681  -9.2306 -14.8907   H         1 RES1   0.0000
    33 H33     -3.3108  -9.4237 -13.1417   H         1 RES1   0.0000
    34 C34     -0.6740 -10.2167 -13.3146   C.3       1 RES1   0.0000
    35 H35     -0.9419  -9.9189 -12.3020   H         1 RES1   0.0000
    36 H36      0.3809 -10.0085 -13.4872   H         1 RES1   0.0000
    37 N37     -2.3719 -12.0020 -13.2941   N.4       1 RES1   1.0000
    38 H38     -2.6434 -11.7463 -12.3501   H         1 RES1   0.0000
    39 H39     -2.5235 -12.9960 -13.4323   H         1 RES1   0.0000
    40 N40      1.9307  -5.2446 -15.7060   N.ar      1 RES1   0.0000
    41 C41      0.6624  -3.0499 -16.6475   C.ar      1 RES1   0.0000
    42 H42      0.1456  -2.1746 -17.0270   H         1 RES1   0.0000
    43 N43      3.8487  -4.4508 -16.6805   N.pl3     1 RES1   0.0000
    44 H44      4.3152  -3.7471 -17.2527   H         1 RES1   0.0000
    45 C45     -0.0596  -3.9606 -15.9027   C.ar      1 RES1   0.0000
    46 H46     -1.1130  -3.8119 -15.6895   H         1 RES1   0.0000
    47 C47      2.5396  -4.2909 -16.4291   C.ar      1 RES1   0.0000
    48 N48      1.9652  -3.1860 -16.9266   N.ar      1 RES1   0.0000
    49 C49      4.6335  -5.6032 -16.2382   C.3       1 RES1   0.0000
    50 H50      4.5273  -5.7041 -15.1469   H         1 RES1   0.0000
    51 C51      6.1062  -5.4608 -16.5687   C.ar      1 RES1   0.0000
    52 C52      4.0457  -6.8442 -16.8998   C.3       1 RES1   0.0000
    53 H53      4.8084  -7.6086 -17.0332   H         1 RES1   0.0000
    54 H54      3.2466  -7.2651 -16.2933   H         1 RES1   0.0000
    55 H55      3.6361  -6.6006 -17.8779   H         1 RES1   0.0000
    56 C56      8.8088  -5.1979 -17.1912   C.ar      1 RES1   0.0000
    57 H57      9.8613  -5.0948 -17.4334   H         1 RES1   0.0000
    58 C58      6.5215  -5.3220 -17.8853   C.ar      1 RES1   0.0000
    59 H59      5.7847  -5.3163 -18.6818   H         1 RES1   0.0000
    60 C60      7.0688  -5.4681 -15.5686   C.ar      1 RES1   0.0000
    61 H61      6.7682  -5.5771 -14.5319   H         1 RES1   0.0000
    62 C62      8.4117  -5.3370 -15.8795   C.ar      1 RES1   0.0000
    63 H63      9.1529  -5.3438 -15.0873   H         1 RES1   0.0000
    64 C64      7.8646  -5.1903 -18.1942   C.ar      1 RES1   0.0000
    65 H65      8.1738  -5.0808 -19.2284   H         1 RES1   0.0000
@<TRIPOS>BOND
     1     1     5   ar
     2     1     6   ar
     3     1     2    1
     4     3     8   ar
     5     3     9   ar
     6     3     4    1
     7     5     9   ar
     8     5    11    1
     9     6     8   ar
    10     6     7    1
    11     8    12    1
    12     9    10    1
    13    11    20    2
    14    11    23    1
    15    13    14    1
    16    13    23   am
    17    13    24    1
    18    14    31    1
    19    14    34    1
    20    14    15    1
    21    16    24    1
    22    16    17    1
    23    16    18    1
    24    16    19    1
    25    20    21    1
    26    20    24    1
    27    21    40   ar
    28    21    45   ar
    29    22    23    2
    30    25    34    1
    31    25    37    1
    32    25    26    1
    33    25    27    1
    34    28    31    1
    35    28    37    1
    36    28    29    1
    37    28    30    1
    38    31    32    1
    39    31    33    1
    40    34    35    1
    41    34    36    1
    42    37    38    1
    43    37    39    1
    44    40    47   ar
    45    41    45   ar
    46    41    48   ar
    47    41    42    1
    48    43    47    1
    49    43    49    1
    50    43    44    1
    51    45    46    1
    52    47    48   ar
    53    49    51    1
    54    49    52    1
    55    49    50    1
    56    51    58   ar
    57    51    60   ar
    58    52    53    1
    59    52    54    1
    60    52    55    1
    61    56    62   ar
    62    56    64   ar
    63    56    57    1
    64    58    64   ar
    65    58    59    1
    66    60    62   ar
    67    60    61    1
    68    62    63    1
    69    64    65    1
@<TRIPOS>SUBSTRUCTURE
     1 RES1        1 GROUP             0 ****  ****    0  
@<TRIPOS>MOLECULE
LIGAND_00493
    65    69     1     0     0
SMALL
USER_CHARGES
****
Generated from the CSD

@<TRIPOS>ATOM
     1 C1       1.3634  -5.6371 -11.3200   C.ar      1 RES1   0.0000
     2 H2       1.6391  -6.6843 -11.2578   H         1 RES1   0.0000
     3 C3       0.7065  -2.9585 -11.4787   C.ar      1 RES1   0.0000
     4 H4       0.4593  -1.9038 -11.5393   H         1 RES1   0.0000
     5 C5       0.4603  -5.2240 -12.2950   C.ar      1 RES1   0.0000
     6 C6       1.9231  -4.7377 -10.4299   C.ar      1 RES1   0.0000
     7 H7       2.6189  -5.0708  -9.6671   H         1 RES1   0.0000
     8 C8       1.5803  -3.4192 -10.5355   C.ar      1 RES1   0.0000
     9 C9       0.1438  -3.8697 -12.3535   C.ar      1 RES1   0.0000
    10 H10     -0.5615  -3.5154 -13.0964   H         1 RES1   0.0000
    11 C11     -0.1513  -6.1860 -13.2685   C.2       1 RES1   0.0000
    12 F12      2.1311  -2.5281  -9.6669   F         1 RES1   0.0000
    13 N13     -1.2406  -7.9411 -14.1570   N.am      1 RES1   0.0000
    14 C14     -1.5105  -9.4109 -14.3092   C.3       1 RES1   0.0000
    15 H15     -1.2165  -9.7060 -15.3154   H         1 RES1   0.0000
    16 C16     -1.3876  -7.1277 -16.4280   C.3       1 RES1   0.0000
    17 H17     -0.7383  -7.0978 -17.3006   H         1 RES1   0.0000
    18 H18     -2.0590  -7.9772 -16.5346   H         1 RES1   0.0000
    19 H19     -1.9874  -6.2200 -16.4199   H         1 RES1   0.0000
    20 C20     -0.0279  -6.1202 -14.6126   C.2       1 RES1   0.0000
    21 C21      0.6269  -5.0726 -15.4374   C.ar      1 RES1   0.0000
    22 O22     -1.1910  -7.8604 -11.8611   O.2       1 RES1   0.0000
    23 C23     -0.9103  -7.3619 -12.9432   C.2       1 RES1   0.0000
    24 N24     -0.6004  -7.2381 -15.1994   N.3       1 RES1   0.0000
    25 C25     -0.9165 -11.7077 -13.4731   C.3       1 RES1   0.0000
    26 H26     -0.3422 -12.2497 -12.7232   H         1 RES1   0.0000
    27 H27     -0.6031 -12.0221 -14.4675   H         1 RES1   0.0000
    28 C28     -3.2233 -11.2474 -14.2596   C.3       1 RES1   0.0000
    29 H29     -2.9780 -11.5606 -15.2733   H         1 RES1   0.0000
    30 H30     -4.2712 -11.4636 -14.0564   H         1 RES1   0.0000
    31 C31     -2.9880  -9.7502 -14.1288   C.3       1 RES1   0.0000
    32 H32     -3.5682  -9.2307 -14.8900   H         1 RES1   0.0000
    33 H33     -3.3104  -9.4239 -13.1411   H         1 RES1   0.0000
    34 C34     -0.6737 -10.2168 -13.3149   C.3       1 RES1   0.0000
    35 H35     -0.9413  -9.9189 -12.3022   H         1 RES1   0.0000
    36 H36      0.3812 -10.0085 -13.4877   H         1 RES1   0.0000
    37 N37     -2.3714 -12.0021 -13.2940   N.4       1 RES1   1.0000
    38 H38     -2.6426 -11.7465 -12.3499   H         1 RES1   0.0000
    39 H39     -2.5230 -12.9961 -13.4322   H         1 RES1   0.0000
    40 N40     -0.1457  -4.0508 -15.8381   N.ar      1 RES1   0.0000
    41 C41      2.4551  -4.1135 -16.5753   C.ar      1 RES1   0.0000
    42 H42      3.5011  -4.1422 -16.8624   H         1 RES1   0.0000
    43 N43     -0.3478  -2.0993 -17.0253   N.pl3     1 RES1   0.0000
    44 H44      0.0846  -1.3649 -17.5856   H         1 RES1   0.0000
    45 C45      1.9657  -5.1409 -15.7940   C.ar      1 RES1   0.0000
    46 H46      2.5978  -5.9636 -15.4765   H         1 RES1   0.0000
    47 C47      0.4289  -3.1110 -16.6060   C.ar      1 RES1   0.0000
    48 N48      1.7106  -3.0842 -16.9995   N.ar      1 RES1   0.0000
    49 C49     -1.7606  -1.9516 -16.6762   C.3       1 RES1   0.0000
    50 H50     -2.2926  -2.8718 -16.9632   H         1 RES1   0.0000
    51 C51     -2.4107  -0.7780 -17.3823   C.ar      1 RES1   0.0000
    52 C52     -1.8487  -1.7919 -15.1630   C.3       1 RES1   0.0000
    53 H53     -2.7463  -1.2440 -14.8841   H         1 RES1   0.0000
    54 H54     -1.8778  -2.7623 -14.6718   H         1 RES1   0.0000
    55 H55     -0.9875  -1.2460 -14.7835   H         1 RES1   0.0000
    56 C56     -3.5951   1.3881 -18.6729   C.ar      1 RES1   0.0000
    57 H57     -4.0560   2.2315 -19.1763   H         1 RES1   0.0000
    58 C58     -1.9338   0.5106 -17.1900   C.ar      1 RES1   0.0000
    59 H59     -1.0898   0.6765 -16.5286   H         1 RES1   0.0000
    60 C60     -3.4935  -0.9630 -18.2309   C.ar      1 RES1   0.0000
    61 H61     -3.8851  -1.9614 -18.3954   H         1 RES1   0.0000
    62 C62     -4.0810   0.1145 -18.8721   C.ar      1 RES1   0.0000
    63 H63     -4.9263  -0.0452 -19.5331   H         1 RES1   0.0000
    64 C64     -2.5219   1.5868 -17.8325   C.ar      1 RES1   0.0000
    65 H65     -2.1366   2.5884 -17.6735   H         1 RES1   0.0000
@<TRIPOS>BOND
     1     1     5   ar
     2     1     6   ar
     3     1     2    1
     4     3     8   ar
     5     3     9   ar
     6     3     4    1
     7     5     9   ar
     8     5    11    1
     9     6     8   ar
    10     6     7    1
    11     8    12    1
    12     9    10    1
    13    11    20    2
    14    11    23    1
    15    13    14    1
    16    13    23   am
    17    13    24    1
    18    14    31    1
    19    14    34    1
    20    14    15    1
    21    16    24    1
    22    16    17    1
    23    16    18    1
    24    16    19    1
    25    20    21    1
    26    20    24    1
    27    21    40   ar
    28    21    45   ar
    29    22    23    2
    30    25    34    1
    31    25    37    1
    32    25    26    1
    33    25    27    1
    34    28    31    1
    35    28    37    1
    36    28    29    1
    37    28    30    1
    38    31    32    1
    39    31    33    1
    40    34    35    1
    41    34    36    1
    42    37    38    1
    43    37    39    1
    44    40    47   ar
    45    41    45   ar
    46    41    48   ar
    47    41    42    1
    48    43    47    1
    49    43    49    1
    50    43    44    1
    51    45    46    1
    52    47    48   ar
    53    49    51    1
    54    49    52    1
    55    49    50    1
    56    51    58   ar
    57    51    60   ar
    58    52    53    1
    59    52    54    1
    60    52    55    1
    61    56    62   ar
    62    56    64   ar
    63    56    57    1
    64    58    64   ar
    65    58    59    1
    66    60    62   ar
    67    60    61    1
    68    62    63    1
    69    64    65    1
@<TRIPOS>SUBSTRUCTURE
     1 RES1        1 GROUP             0 ****  ****    0  
@<TRIPOS>MOLECULE
LIGAND_00494
    65    69     1     0     0
SMALL
USER_CHARGES
****
Generated from the CSD

@<TRIPOS>ATOM
     1 C1       1.8363  -5.0308 -12.2162   C.ar      1 RES1   0.0000
     2 H2       2.4918  -5.5879 -12.8768   H         1 RES1   0.0000
     3 C3       0.1881  -3.5725 -10.5463   C.ar      1 RES1   0.0000
     4 H4      -0.4529  -2.9906  -9.8924   H         1 RES1   0.0000
     5 C5       0.4604  -5.2241 -12.2950   C.ar      1 RES1   0.0000
     6 C6       2.3872  -4.1369 -11.3151   C.ar      1 RES1   0.0000
     7 H7       3.4617  -4.0002 -11.2544   H         1 RES1   0.0000
     8 C8       1.5456  -3.4286 -10.5045   C.ar      1 RES1   0.0000
     9 C9      -0.3489  -4.4790 -11.4419   C.ar      1 RES1   0.0000
    10 H10     -1.4245  -4.6103 -11.4724   H         1 RES1   0.0000
    11 C11     -0.1512  -6.1860 -13.2685   C.2       1 RES1   0.0000
    12 F12      2.0801  -2.5436  -9.6196   F         1 RES1   0.0000
    13 N13     -1.2406  -7.9410 -14.1570   N.am      1 RES1   0.0000
    14 C14     -1.5106  -9.4109 -14.3092   C.3       1 RES1   0.0000
    15 H15     -1.2163  -9.7061 -15.3153   H         1 RES1   0.0000
    16 C16     -1.3876  -7.1276 -16.4280   C.3       1 RES1   0.0000
    17 H17     -0.7384  -7.0978 -17.3006   H         1 RES1   0.0000
    18 H18     -2.0590  -7.9772 -16.5346   H         1 RES1   0.0000
    19 H19     -1.9875  -6.2200 -16.4198   H         1 RES1   0.0000
    20 C20     -0.0279  -6.1202 -14.6126   C.2       1 RES1   0.0000
    21 C21      0.6269  -5.0726 -15.4374   C.ar      1 RES1   0.0000
    22 O22     -1.1910  -7.8605 -11.8611   O.2       1 RES1   0.0000
    23 C23     -0.9103  -7.3619 -12.9432   C.2       1 RES1   0.0000
    24 N24     -0.6005  -7.2381 -15.1994   N.3       1 RES1   0.0000
    25 C25     -0.9169 -11.7076 -13.4729   C.3       1 RES1   0.0000
    26 H26     -0.3429 -12.2497 -12.7228   H         1 RES1   0.0000
    27 H27     -0.6032 -12.0221 -14.4672   H         1 RES1   0.0000
    28 C28     -3.2235 -11.2473 -14.2600   C.3       1 RES1   0.0000
    29 H29     -2.9779 -11.5605 -15.2736   H         1 RES1   0.0000
    30 H30     -4.2714 -11.4634 -14.0572   H         1 RES1   0.0000
    31 C31     -2.9881  -9.7501 -14.1293   C.3       1 RES1   0.0000
    32 H32     -3.5681  -9.2306 -14.8907   H         1 RES1   0.0000
    33 H33     -3.3108  -9.4237 -13.1417   H         1 RES1   0.0000
    34 C34     -0.6740 -10.2167 -13.3146   C.3       1 RES1   0.0000
    35 H35     -0.9419  -9.9189 -12.3020   H         1 RES1   0.0000
    36 H36      0.3809 -10.0085 -13.4872   H         1 RES1   0.0000
    37 N37     -2.3719 -12.0020 -13.2941   N.4       1 RES1   1.0000
    38 H38     -2.6434 -11.7463 -12.3501   H         1 RES1   0.0000
    39 H39     -2.5235 -12.9960 -13.4323   H         1 RES1   0.0000
    40 N40     -0.1457  -4.0508 -15.8381   N.ar      1 RES1   0.0000
    41 C41      2.4551  -4.1135 -16.5753   C.ar      1 RES1   0.0000
    42 H42      3.5011  -4.1422 -16.8624   H         1 RES1   0.0000
    43 N43     -0.3478  -2.0993 -17.0253   N.pl3     1 RES1   0.0000
    44 H44      0.0846  -1.3648 -17.5855   H         1 RES1   0.0000
    45 C45      1.9657  -5.1409 -15.7940   C.ar      1 RES1   0.0000
    46 H46      2.5978  -5.9636 -15.4765   H         1 RES1   0.0000
    47 C47      0.4289  -3.1110 -16.6060   C.ar      1 RES1   0.0000
    48 N48      1.7106  -3.0842 -16.9995   N.ar      1 RES1   0.0000
    49 C49     -1.7606  -1.9517 -16.6763   C.3       1 RES1   0.0000
    50 H50     -2.2927  -2.8718 -16.9636   H         1 RES1   0.0000
    51 C51     -2.4107  -0.7779 -17.3822   C.ar      1 RES1   0.0000
    52 C52     -1.8489  -1.7923 -15.1631   C.3       1 RES1   0.0000
    53 H53     -2.7251  -1.2096 -14.8865   H         1 RES1   0.0000
    54 H54     -1.9189  -2.7619 -14.6746   H         1 RES1   0.0000
    55 H55     -0.9682  -1.2822 -14.7785   H         1 RES1   0.0000
    56 C56     -3.5949   1.3884 -18.6725   C.ar      1 RES1   0.0000
    57 H57     -4.0558   2.2320 -19.1757   H         1 RES1   0.0000
    58 C58     -1.9338   0.5107 -17.1896   C.ar      1 RES1   0.0000
    59 H59     -1.0899   0.6764 -16.5281   H         1 RES1   0.0000
    60 C60     -3.4934  -0.9628 -18.2310   C.ar      1 RES1   0.0000
    61 H61     -3.8849  -1.9611 -18.3958   H         1 RES1   0.0000
    62 C62     -4.0808   0.1150 -18.8720   C.ar      1 RES1   0.0000
    63 H63     -4.9260  -0.0447 -19.5331   H         1 RES1   0.0000
    64 C64     -2.5219   1.5870 -17.8319   C.ar      1 RES1   0.0000
    65 H65     -2.1365   2.5886 -17.6726   H         1 RES1   0.0000
@<TRIPOS>BOND
     1     1     5   ar
     2     1     6   ar
     3     1     2    1
     4     3     8   ar
     5     3     9   ar
     6     3     4    1
     7     5     9   ar
     8     5    11    1
     9     6     8   ar
    10     6     7    1
    11     8    12    1
    12     9    10    1
    13    11    20    2
    14    11    23    1
    15    13    14    1
    16    13    23   am
    17    13    24    1
    18    14    31    1
    19    14    34    1
    20    14    15    1
    21    16    24    1
    22    16    17    1
    23    16    18    1
    24    16    19    1
    25    20    21    1
    26    20    24    1
    27    21    40   ar
    28    21    45   ar
    29    22    23    2
    30    25    34    1
    31    25    37    1
    32    25    26    1
    33    25    27    1
    34    28    31    1
    35    28    37    1
    36    28    29    1
    37    28    30    1
    38    31    32    1
    39    31    33    1
    40    34    35    1
    41    34    36    1
    42    37    38    1
    43    37    39    1
    44    40    47   ar
    45    41    45   ar
    46    41    48   ar
    47    41    42    1
    48    43    47    1
    49    43    49    1
    50    43    44    1
    51    45    46    1
    52    47    48   ar
    53    49    51    1
    54    49    52    1
    55    49    50    1
    56    51    58   ar
    57    51    60   ar
    58    52    53    1
    59    52    54    1
    60    52    55    1
    61    56    62   ar
    62    56    64   ar
    63    56    57    1
    64    58    64   ar
    65    58    59    1
    66    60    62   ar
    67    60    61    1
    68    62    63    1
    69    64    65    1
@<TRIPOS>SUBSTRUCTURE
     1 RES1        1 GROUP             0 ****  ****    0  
@<TRIPOS>MOLECULE
LIGAND_00495
    65    69     1     0     0
SMALL
USER_CHARGES
****
Generated from the CSD

@<TRIPOS>ATOM
     1 C1       1.8363  -5.0308 -12.2162   C.ar      1 RES1   0.0000
     2 H2       2.4918  -5.5879 -12.8768   H         1 RES1   0.0000
     3 C3       0.1881  -3.5725 -10.5463   C.ar      1 RES1   0.0000
     4 H4      -0.4529  -2.9906  -9.8924   H         1 RES1   0.0000
     5 C5       0.4604  -5.2241 -12.2950   C.ar      1 RES1   0.0000
     6 C6       2.3872  -4.1369 -11.3151   C.ar      1 RES1   0.0000
     7 H7       3.4617  -4.0002 -11.2544   H         1 RES1   0.0000
     8 C8       1.5456  -3.4286 -10.5045   C.ar      1 RES1   0.0000
     9 C9      -0.3489  -4.4790 -11.4419   C.ar      1 RES1   0.0000
    10 H10     -1.4245  -4.6103 -11.4724   H         1 RES1   0.0000
    11 C11     -0.1512  -6.1860 -13.2685   C.2       1 RES1   0.0000
    12 F12      2.0801  -2.5436  -9.6196   F         1 RES1   0.0000
    13 N13     -1.2406  -7.9410 -14.1570   N.am      1 RES1   0.0000
    14 C14     -1.5106  -9.4109 -14.3092   C.3       1 RES1   0.0000
    15 H15     -1.2168  -9.7060 -15.3155   H         1 RES1   0.0000
    16 C16     -1.3876  -7.1276 -16.4280   C.3       1 RES1   0.0000
    17 H17     -0.7384  -7.0978 -17.3006   H         1 RES1   0.0000
    18 H18     -2.0590  -7.9772 -16.5346   H         1 RES1   0.0000
    19 H19     -1.9875  -6.2200 -16.4198   H         1 RES1   0.0000
    20 C20     -0.0279  -6.1202 -14.6126   C.2       1 RES1   0.0000
    21 C21      0.6269  -5.0726 -15.4374   C.ar      1 RES1   0.0000
    22 O22     -1.1910  -7.8605 -11.8611   O.2       1 RES1   0.0000
    23 C23     -0.9103  -7.3619 -12.9432   C.2       1 RES1   0.0000
    24 N24     -0.6005  -7.2381 -15.1994   N.3       1 RES1   0.0000
    25 C25     -0.9163 -11.7077 -13.4734   C.3       1 RES1   0.0000
    26 H26     -0.3419 -12.2498 -12.7237   H         1 RES1   0.0000
    27 H27     -0.6031 -12.0221 -14.4679   H         1 RES1   0.0000
    28 C28     -3.2234 -11.2474 -14.2593   C.3       1 RES1   0.0000
    29 H29     -2.9782 -11.5605 -15.2731   H         1 RES1   0.0000
    30 H30     -4.2711 -11.4636 -14.0559   H         1 RES1   0.0000
    31 C31     -2.9880  -9.7502 -14.1285   C.3       1 RES1   0.0000
    32 H32     -3.5684  -9.2306 -14.8896   H         1 RES1   0.0000
    33 H33     -3.3101  -9.4239 -13.1407   H         1 RES1   0.0000
    34 C34     -0.6735 -10.2168 -13.3151   C.3       1 RES1   0.0000
    35 H35     -0.9408  -9.9190 -12.3023   H         1 RES1   0.0000
    36 H36      0.3813 -10.0085 -13.4882   H         1 RES1   0.0000
    37 N37     -2.3712 -12.0021 -13.2939   N.4       1 RES1   1.0000
    38 H38     -2.6422 -11.7466 -12.3498   H         1 RES1   0.0000
    39 H39     -2.5228 -12.9962 -13.4321   H         1 RES1   0.0000
    40 N40      1.9307  -5.2446 -15.7060   N.ar      1 RES1   0.0000
    41 C41      0.6624  -3.0499 -16.6475   C.ar      1 RES1   0.0000
    42 H42      0.1456  -2.1746 -17.0270   H         1 RES1   0.0000
    43 N43      3.8487  -4.4508 -16.6805   N.pl3     1 RES1   0.0000
    44 H44      4.3144  -5.2693 -16.2887   H         1 RES1   0.0000
    45 C45     -0.0596  -3.9606 -15.9027   C.ar      1 RES1   0.0000
    46 H46     -1.1130  -3.8119 -15.6895   H         1 RES1   0.0000
    47 C47      2.5396  -4.2909 -16.4291   C.ar      1 RES1   0.0000
    48 N48      1.9652  -3.1860 -16.9266   N.ar      1 RES1   0.0000
    49 C49      4.6628  -3.4926 -17.4279   C.3       1 RES1   0.0000
    50 H50      4.1908  -3.3173 -18.4071   H         1 RES1   0.0000
    51 C51      6.0769  -3.9896 -17.6559   C.ar      1 RES1   0.0000
    52 C52      4.6664  -2.1824 -16.6492   C.3       1 RES1   0.0000
    53 H53      5.5631  -1.6061 -16.8670   H         1 RES1   0.0000
    54 H54      3.8019  -1.5749 -16.9087   H         1 RES1   0.0000
    55 H55      4.6378  -2.3720 -15.5782   H         1 RES1   0.0000
    56 C56      8.6772  -4.9038 -18.0594   C.ar      1 RES1   0.0000
    57 H57      9.6897  -5.2605 -18.2167   H         1 RES1   0.0000
    58 C58      6.9010  -4.2846 -16.5794   C.ar      1 RES1   0.0000
    59 H59      6.5282  -4.1572 -15.5685   H         1 RES1   0.0000
    60 C60      6.5788  -4.1582 -18.9391   C.ar      1 RES1   0.0000
    61 H61      5.9535  -3.9322 -19.7965   H         1 RES1   0.0000
    62 C62      7.8714  -4.6130 -19.1381   C.ar      1 RES1   0.0000
    63 H63      8.2500  -4.7406 -20.1468   H         1 RES1   0.0000
    64 C64      8.1929  -4.7399 -16.7803   C.ar      1 RES1   0.0000
    65 H65      8.8248  -4.9681 -15.9284   H         1 RES1   0.0000
@<TRIPOS>BOND
     1     1     5   ar
     2     1     6   ar
     3     1     2    1
     4     3     8   ar
     5     3     9   ar
     6     3     4    1
     7     5     9   ar
     8     5    11    1
     9     6     8   ar
    10     6     7    1
    11     8    12    1
    12     9    10    1
    13    11    20    2
    14    11    23    1
    15    13    14    1
    16    13    23   am
    17    13    24    1
    18    14    31    1
    19    14    34    1
    20    14    15    1
    21    16    24    1
    22    16    17    1
    23    16    18    1
    24    16    19    1
    25    20    21    1
    26    20    24    1
    27    21    40   ar
    28    21    45   ar
    29    22    23    2
    30    25    34    1
    31    25    37    1
    32    25    26    1
    33    25    27    1
    34    28    31    1
    35    28    37    1
    36    28    29    1
    37    28    30    1
    38    31    32    1
    39    31    33    1
    40    34    35    1
    41    34    36    1
    42    37    38    1
    43    37    39    1
    44    40    47   ar
    45    41    45   ar
    46    41    48   ar
    47    41    42    1
    48    43    47    1
    49    43    49    1
    50    43    44    1
    51    45    46    1
    52    47    48   ar
    53    49    51    1
    54    49    52    1
    55    49    50    1
    56    51    58   ar
    57    51    60   ar
    58    52    53    1
    59    52    54    1
    60    52    55    1
    61    56    62   ar
    62    56    64   ar
    63    56    57    1
    64    58    64   ar
    65    58    59    1
    66    60    62   ar
    67    60    61    1
    68    62    63    1
    69    64    65    1
@<TRIPOS>SUBSTRUCTURE
     1 RES1        1 GROUP             0 ****  ****    0  
@<TRIPOS>MOLECULE
LIGAND_00496
    65    69     1     0     0
SMALL
USER_CHARGES
****
Generated from the CSD

@<TRIPOS>ATOM
     1 C1       1.8363  -5.0308 -12.2162   C.ar      1 RES1   0.0000
     2 H2       2.4918  -5.5879 -12.8768   H         1 RES1   0.0000
     3 C3       0.1881  -3.5725 -10.5463   C.ar      1 RES1   0.0000
     4 H4      -0.4529  -2.9906  -9.8924   H         1 RES1   0.0000
     5 C5       0.4604  -5.2241 -12.2950   C.ar      1 RES1   0.0000
     6 C6       2.3872  -4.1369 -11.3151   C.ar      1 RES1   0.0000
     7 H7       3.4617  -4.0002 -11.2544   H         1 RES1   0.0000
     8 C8       1.5456  -3.4286 -10.5045   C.ar      1 RES1   0.0000
     9 C9      -0.3489  -4.4790 -11.4419   C.ar      1 RES1   0.0000
    10 H10     -1.4245  -4.6103 -11.4724   H         1 RES1   0.0000
    11 C11     -0.1512  -6.1860 -13.2685   C.2       1 RES1   0.0000
    12 F12      2.0801  -2.5436  -9.6196   F         1 RES1   0.0000
    13 N13     -1.2406  -7.9410 -14.1570   N.am      1 RES1   0.0000
    14 C14     -1.5106  -9.4109 -14.3092   C.3       1 RES1   0.0000
    15 H15     -1.2168  -9.7060 -15.3155   H         1 RES1   0.0000
    16 C16     -1.3876  -7.1276 -16.4280   C.3       1 RES1   0.0000
    17 H17     -0.7384  -7.0978 -17.3006   H         1 RES1   0.0000
    18 H18     -2.0590  -7.9772 -16.5346   H         1 RES1   0.0000
    19 H19     -1.9875  -6.2200 -16.4198   H         1 RES1   0.0000
    20 C20     -0.0279  -6.1202 -14.6126   C.2       1 RES1   0.0000
    21 C21      0.6269  -5.0726 -15.4374   C.ar      1 RES1   0.0000
    22 O22     -1.1910  -7.8605 -11.8611   O.2       1 RES1   0.0000
    23 C23     -0.9103  -7.3619 -12.9432   C.2       1 RES1   0.0000
    24 N24     -0.6005  -7.2381 -15.1994   N.3       1 RES1   0.0000
    25 C25     -0.9163 -11.7077 -13.4734   C.3       1 RES1   0.0000
    26 H26     -0.3419 -12.2498 -12.7237   H         1 RES1   0.0000
    27 H27     -0.6031 -12.0221 -14.4679   H         1 RES1   0.0000
    28 C28     -3.2234 -11.2474 -14.2593   C.3       1 RES1   0.0000
    29 H29     -2.9782 -11.5605 -15.2731   H         1 RES1   0.0000
    30 H30     -4.2711 -11.4636 -14.0559   H         1 RES1   0.0000
    31 C31     -2.9880  -9.7502 -14.1285   C.3       1 RES1   0.0000
    32 H32     -3.5684  -9.2306 -14.8896   H         1 RES1   0.0000
    33 H33     -3.3101  -9.4239 -13.1407   H         1 RES1   0.0000
    34 C34     -0.6735 -10.2168 -13.3151   C.3       1 RES1   0.0000
    35 H35     -0.9408  -9.9190 -12.3023   H         1 RES1   0.0000
    36 H36      0.3813 -10.0085 -13.4882   H         1 RES1   0.0000
    37 N37     -2.3712 -12.0021 -13.2939   N.4       1 RES1   1.0000
    38 H38     -2.6422 -11.7466 -12.3498   H         1 RES1   0.0000
    39 H39     -2.5228 -12.9962 -13.4321   H         1 RES1   0.0000
    40 N40     -0.1457  -4.0508 -15.8381   N.ar      1 RES1   0.0000
    41 C41      2.4551  -4.1135 -16.5753   C.ar      1 RES1   0.0000
    42 H42      3.5011  -4.1422 -16.8624   H         1 RES1   0.0000
    43 N43     -0.3478  -2.0993 -17.0253   N.pl3     1 RES1   0.0000
    44 H44     -1.3332  -2.1123 -16.7624   H         1 RES1   0.0000
    45 C45      1.9657  -5.1409 -15.7940   C.ar      1 RES1   0.0000
    46 H46      2.5978  -5.9636 -15.4765   H         1 RES1   0.0000
    47 C47      0.4289  -3.1110 -16.6060   C.ar      1 RES1   0.0000
    48 N48      1.7106  -3.0842 -16.9995   N.ar      1 RES1   0.0000
    49 C49      0.1160  -1.0128 -17.8878   C.3       1 RES1   0.0000
    50 H50      0.9930  -0.5404 -17.4188   H         1 RES1   0.0000
    51 C51     -0.9459   0.0475 -18.1034   C.ar      1 RES1   0.0000
    52 C52      0.5472  -1.6276 -19.2142   C.3       1 RES1   0.0000
    53 H53      0.4639  -0.9025 -20.0211   H         1 RES1   0.0000
    54 H54      1.5805  -1.9650 -19.1673   H         1 RES1   0.0000
    55 H55     -0.0775  -2.4831 -19.4622   H         1 RES1   0.0000
    56 C56     -2.9066   1.9851 -18.5058   C.ar      1 RES1   0.0000
    57 H57     -3.6704   2.7397 -18.6617   H         1 RES1   0.0000
    58 C58     -2.1602  -0.2817 -18.6884   C.ar      1 RES1   0.0000
    59 H59     -2.3479  -1.3060 -18.9932   H         1 RES1   0.0000
    60 C60     -0.7294   1.3654 -17.7253   C.ar      1 RES1   0.0000
    61 H61      0.2131   1.6471 -17.2675   H         1 RES1   0.0000
    62 C62     -1.7050   2.3274 -17.9256   C.ar      1 RES1   0.0000
    63 H63     -1.5220   3.3535 -17.6244   H         1 RES1   0.0000
    64 C64     -3.1348   0.6813 -18.8872   C.ar      1 RES1   0.0000
    65 H65     -4.0800   0.4081 -19.3443   H         1 RES1   0.0000
@<TRIPOS>BOND
     1     1     5   ar
     2     1     6   ar
     3     1     2    1
     4     3     8   ar
     5     3     9   ar
     6     3     4    1
     7     5     9   ar
     8     5    11    1
     9     6     8   ar
    10     6     7    1
    11     8    12    1
    12     9    10    1
    13    11    20    2
    14    11    23    1
    15    13    14    1
    16    13    23   am
    17    13    24    1
    18    14    31    1
    19    14    34    1
    20    14    15    1
    21    16    24    1
    22    16    17    1
    23    16    18    1
    24    16    19    1
    25    20    21    1
    26    20    24    1
    27    21    40   ar
    28    21    45   ar
    29    22    23    2
    30    25    34    1
    31    25    37    1
    32    25    26    1
    33    25    27    1
    34    28    31    1
    35    28    37    1
    36    28    29    1
    37    28    30    1
    38    31    32    1
    39    31    33    1
    40    34    35    1
    41    34    36    1
    42    37    38    1
    43    37    39    1
    44    40    47   ar
    45    41    45   ar
    46    41    48   ar
    47    41    42    1
    48    43    47    1
    49    43    49    1
    50    43    44    1
    51    45    46    1
    52    47    48   ar
    53    49    51    1
    54    49    52    1
    55    49    50    1
    56    51    58   ar
    57    51    60   ar
    58    52    53    1
    59    52    54    1
    60    52    55    1
    61    56    62   ar
    62    56    64   ar
    63    56    57    1
    64    58    64   ar
    65    58    59    1
    66    60    62   ar
    67    60    61    1
    68    62    63    1
    69    64    65    1
@<TRIPOS>SUBSTRUCTURE
     1 RES1        1 GROUP             0 ****  ****    0  
@<TRIPOS>MOLECULE
LIGAND_00497
    65    69     1     0     0
SMALL
USER_CHARGES
****
Generated from the CSD

@<TRIPOS>ATOM
     1 C1      -2.4792  -4.2529 -16.4101   C.ar      1 RES1   0.0000
     2 H2      -3.1362  -5.0584 -16.7202   H         1 RES1   0.0000
     3 C3      -0.8426  -2.1729 -15.6183   C.ar      1 RES1   0.0000
     4 H4      -0.2085  -1.3488 -15.3085   H         1 RES1   0.0000
     5 C5      -1.5964  -4.4580 -15.3540   C.ar      1 RES1   0.0000
     6 C6      -2.5412  -3.0390 -17.0712   C.ar      1 RES1   0.0000
     7 H7      -3.2258  -2.8917 -17.8997   H         1 RES1   0.0000
     8 C8      -1.7208  -2.0288 -16.6544   C.ar      1 RES1   0.0000
     9 C9      -0.7809  -3.3954 -14.9750   C.ar      1 RES1   0.0000
    10 H10     -0.0770  -3.5235 -14.1606   H         1 RES1   0.0000
    11 C11     -1.5206  -5.7662 -14.6259   C.2       1 RES1   0.0000
    12 F12     -1.7802  -0.8304 -17.2963   F         1 RES1   0.0000
    13 N13     -1.3114  -7.9562 -14.1607   N.am      1 RES1   0.0000
    14 C14     -1.6595  -9.4046 -14.3547   C.3       1 RES1   0.0000
    15 H15     -1.3266  -9.7019 -15.3481   H         1 RES1   0.0000
    16 C16     -1.1004  -7.7688 -11.7605   C.3       1 RES1   0.0000
    17 H17     -1.7557  -8.4612 -11.2360   H         1 RES1   0.0000
    18 H18     -0.1684  -8.2855 -11.9802   H         1 RES1   0.0000
    19 H19     -0.8791  -6.9388 -11.0929   H         1 RES1   0.0000
    20 C20     -1.7513  -5.9390 -13.3057   C.2       1 RES1   0.0000
    21 C21     -2.0254  -4.9138 -12.2663   C.ar      1 RES1   0.0000
    22 O22     -1.0792  -7.3834 -16.3739   O.2       1 RES1   0.0000
    23 C23     -1.2553  -7.0526 -15.2086   C.2       1 RES1   0.0000
    24 N24     -1.7311  -7.2889 -12.9907   N.3       1 RES1   0.0000
    25 C25     -1.2523 -11.7453 -13.5289   C.3       1 RES1   0.0000
    26 H26     -0.7552 -12.3323 -12.7580   H         1 RES1   0.0000
    27 H27     -0.9019 -12.0633 -14.5097   H         1 RES1   0.0000
    28 C28     -3.4789 -11.1344 -14.4349   C.3       1 RES1   0.0000
    29 H29     -3.1952 -11.4467 -15.4388   H         1 RES1   0.0000
    30 H30     -4.5476 -11.2896 -14.2949   H         1 RES1   0.0000
    31 C31     -3.1625  -9.6563 -14.2638   C.3       1 RES1   0.0000
    32 H32     -3.6662  -9.0912 -15.0467   H         1 RES1   0.0000
    33 H33     -3.5206  -9.3258 -13.2899   H         1 RES1   0.0000
    34 C34     -0.9303 -10.2744 -13.3300   C.3       1 RES1   0.0000
    35 H35     -1.2371  -9.9760 -12.3286   H         1 RES1   0.0000
    36 H36      0.1432 -10.1279 -13.4395   H         1 RES1   0.0000
    37 N37     -2.7300 -11.9536 -13.4371   N.4       1 RES1   1.0000
    38 H38     -3.0390 -11.6961 -12.5051   H         1 RES1   0.0000
    39 H39     -2.9326 -12.9345 -13.6017   H         1 RES1   0.0000
    40 N40     -1.1072  -4.7783 -11.2966   N.ar      1 RES1   0.0000
    41 C41     -3.3226  -3.2287 -11.2491   C.ar      1 RES1   0.0000
    42 H42     -4.2112  -2.6061 -11.2397   H         1 RES1   0.0000
    43 N43     -0.4495  -3.7510  -9.3549   N.pl3     1 RES1   0.0000
    44 H44      0.5184  -3.9947  -9.5650   H         1 RES1   0.0000
    45 C45     -3.1749  -4.1373 -12.2777   C.ar      1 RES1   0.0000
    46 H46     -3.9235  -4.2406 -13.0562   H         1 RES1   0.0000
    47 C47     -1.3567  -3.8727 -10.3371   C.ar      1 RES1   0.0000
    48 N48     -2.4311  -3.0737 -10.2618   N.ar      1 RES1   0.0000
    49 C49     -0.7727  -3.3513  -7.9855   C.3       1 RES1   0.0000
    50 H50     -1.7770  -3.7275  -7.7362   H         1 RES1   0.0000
    51 C51     -0.7627  -1.8460  -7.8052   C.ar      1 RES1   0.0000
    52 C52      0.2385  -4.0162  -7.0589   C.3       1 RES1   0.0000
    53 H53      0.0246  -3.7779  -6.0191   H         1 RES1   0.0000
    54 H54      0.2135  -5.0982  -7.1705   H         1 RES1   0.0000
    55 H55      1.2472  -3.6758  -7.2835   H         1 RES1   0.0000
    56 C56     -0.7293   0.9203  -7.4782   C.ar      1 RES1   0.0000
    57 H57     -0.7167   1.9977  -7.3516   H         1 RES1   0.0000
    58 C58      0.3915  -1.1159  -8.0499   C.ar      1 RES1   0.0000
    59 H59      1.2918  -1.6287  -8.3720   H         1 RES1   0.0000
    60 C60     -1.9001  -1.1666  -7.3911   C.ar      1 RES1   0.0000
    61 H61     -2.8140  -1.7164  -7.1920   H         1 RES1   0.0000
    62 C62     -1.8822   0.2085  -7.2294   C.ar      1 RES1   0.0000
    63 H63     -2.7790   0.7263  -6.9059   H         1 RES1   0.0000
    64 C64      0.4074   0.2591  -7.8884   C.ar      1 RES1   0.0000
    65 H65      1.3170   0.8165  -8.0854   H         1 RES1   0.0000
@<TRIPOS>BOND
     1     1     5   ar
     2     1     6   ar
     3     1     2    1
     4     3     8   ar
     5     3     9   ar
     6     3     4    1
     7     5     9   ar
     8     5    11    1
     9     6     8   ar
    10     6     7    1
    11     8    12    1
    12     9    10    1
    13    11    20    2
    14    11    23    1
    15    13    14    1
    16    13    23   am
    17    13    24    1
    18    14    31    1
    19    14    34    1
    20    14    15    1
    21    16    24    1
    22    16    17    1
    23    16    18    1
    24    16    19    1
    25    20    21    1
    26    20    24    1
    27    21    40   ar
    28    21    45   ar
    29    22    23    2
    30    25    34    1
    31    25    37    1
    32    25    26    1
    33    25    27    1
    34    28    31    1
    35    28    37    1
    36    28    29    1
    37    28    30    1
    38    31    32    1
    39    31    33    1
    40    34    35    1
    41    34    36    1
    42    37    38    1
    43    37    39    1
    44    40    47   ar
    45    41    45   ar
    46    41    48   ar
    47    41    42    1
    48    43    47    1
    49    43    49    1
    50    43    44    1
    51    45    46    1
    52    47    48   ar
    53    49    51    1
    54    49    52    1
    55    49    50    1
    56    51    58   ar
    57    51    60   ar
    58    52    53    1
    59    52    54    1
    60    52    55    1
    61    56    62   ar
    62    56    64   ar
    63    56    57    1
    64    58    64   ar
    65    58    59    1
    66    60    62   ar
    67    60    61    1
    68    62    63    1
    69    64    65    1
@<TRIPOS>SUBSTRUCTURE
     1 RES1        1 GROUP             0 ****  ****    0  
@<TRIPOS>MOLECULE
LIGAND_00498
    65    69     1     0     0
SMALL
USER_CHARGES
****
Generated from the CSD

@<TRIPOS>ATOM
     1 C1      -2.7109  -3.7025 -15.4394   C.ar      1 RES1   0.0000
     2 H2      -3.6199  -4.0711 -14.9765   H         1 RES1   0.0000
     3 C3      -0.4018  -2.7228 -16.5970   C.ar      1 RES1   0.0000
     4 H4       0.5026  -2.3277 -17.0478   H         1 RES1   0.0000
     5 C5      -1.5423  -4.4525 -15.3452   C.ar      1 RES1   0.0000
     6 C6      -2.7368  -2.4912 -16.1075   C.ar      1 RES1   0.0000
     7 H7      -3.6549  -1.9183 -16.1840   H         1 RES1   0.0000
     8 C8      -1.5779  -2.0321 -16.6673   C.ar      1 RES1   0.0000
     9 C9      -0.3925  -3.9386 -15.9382   C.ar      1 RES1   0.0000
    10 H10      0.5332  -4.5006 -15.8893   H         1 RES1   0.0000
    11 C11     -1.4978  -5.7646 -14.6215   C.2       1 RES1   0.0000
    12 F12     -1.5948  -0.8388 -17.3213   F         1 RES1   0.0000
    13 N13     -1.3296  -7.9594 -14.1624   N.am      1 RES1   0.0000
    14 C14     -1.6969  -9.4014 -14.3677   C.3       1 RES1   0.0000
    15 H15     -1.3544  -9.6997 -15.3575   H         1 RES1   0.0000
    16 C16     -1.1524  -7.7848 -11.7585   C.3       1 RES1   0.0000
    17 H17     -1.8255  -8.4703 -11.2478   H         1 RES1   0.0000
    18 H18     -0.2243  -8.3135 -11.9660   H         1 RES1   0.0000
    19 H19     -0.9301  -6.9611 -11.0834   H         1 RES1   0.0000
    20 C20     -1.7513  -5.9390 -13.3057   C.2       1 RES1   0.0000
    21 C21     -2.0254  -4.9138 -12.2663   C.ar      1 RES1   0.0000
    22 O22     -1.0548  -7.3815 -16.3694   O.2       1 RES1   0.0000
    23 C23     -1.2435  -7.0526 -15.2055   C.2       1 RES1   0.0000
    24 N24     -1.7567  -7.2903 -12.9961   N.3       1 RES1   0.0000
    25 C25     -1.3376 -11.7516 -13.5464   C.3       1 RES1   0.0000
    26 H26     -0.8607 -12.3493 -12.7711   H         1 RES1   0.0000
    27 H27     -0.9780 -12.0708 -14.5235   H         1 RES1   0.0000
    28 C28     -3.5413 -11.1027 -14.4817   C.3       1 RES1   0.0000
    29 H29     -3.2479 -11.4151 -15.4828   H         1 RES1   0.0000
    30 H30     -4.6142 -11.2420 -14.3577   H         1 RES1   0.0000
    31 C31     -3.2048  -9.6303 -14.2995   C.3       1 RES1   0.0000
    32 H32     -3.6884  -9.0544 -15.0871   H         1 RES1   0.0000
    33 H33     -3.5719  -9.2985 -13.3294   H         1 RES1   0.0000
    34 C34     -0.9961 -10.2866 -13.3364   C.3       1 RES1   0.0000
    35 H35     -1.3127  -9.9877 -12.3382   H         1 RES1   0.0000
    36 H36      0.0810 -10.1562 -13.4299   H         1 RES1   0.0000
    37 N37     -2.8196 -11.9375 -13.4768   N.4       1 RES1   1.0000
    38 H38     -3.1380 -11.6792 -12.5483   H         1 RES1   0.0000
    39 H39     -3.0347 -12.9144 -13.6486   H         1 RES1   0.0000
    40 N40     -1.1072  -4.7783 -11.2966   N.ar      1 RES1   0.0000
    41 C41     -3.3226  -3.2287 -11.2491   C.ar      1 RES1   0.0000
    42 H42     -4.2112  -2.6061 -11.2397   H         1 RES1   0.0000
    43 N43     -0.4495  -3.7510  -9.3549   N.pl3     1 RES1   0.0000
    44 H44     -0.7710  -3.4202  -8.4452   H         1 RES1   0.0000
    45 C45     -3.1749  -4.1373 -12.2777   C.ar      1 RES1   0.0000
    46 H46     -3.9235  -4.2406 -13.0562   H         1 RES1   0.0000
    47 C47     -1.3567  -3.8727 -10.3371   C.ar      1 RES1   0.0000
    48 N48     -2.4311  -3.0737 -10.2618   N.ar      1 RES1   0.0000
    49 C49      0.9814  -4.0027  -9.5250   C.3       1 RES1   0.0000
    50 H50      1.2691  -3.7228 -10.5502   H         1 RES1   0.0000
    51 C51      1.3426  -5.4582  -9.3026   C.ar      1 RES1   0.0000
    52 C52      1.7285  -3.1022  -8.5482   C.3       1 RES1   0.0000
    53 H53      2.8042  -3.2253  -8.6548   H         1 RES1   0.0000
    54 H54      1.4882  -2.0558  -8.7243   H         1 RES1   0.0000
    55 H55      1.4604  -3.3431  -7.5216   H         1 RES1   0.0000
    56 C56      2.0007  -8.1319  -8.8796   C.ar      1 RES1   0.0000
    57 H57      2.2564  -9.1734  -8.7153   H         1 RES1   0.0000
    58 C58      1.0901  -6.0671  -8.0818   C.ar      1 RES1   0.0000
    59 H59      0.6312  -5.4949  -7.2823   H         1 RES1   0.0000
    60 C60      1.9332  -6.2113 -10.3081   C.ar      1 RES1   0.0000
    61 H61      2.1419  -5.7563 -11.2706   H         1 RES1   0.0000
    62 C62      2.2594  -7.5403 -10.0965   C.ar      1 RES1   0.0000
    63 H63      2.7200  -8.1168 -10.8918   H         1 RES1   0.0000
    64 C64      1.4163  -7.3963  -7.8723   C.ar      1 RES1   0.0000
    65 H65      1.2110  -7.8590  -6.9127   H         1 RES1   0.0000
@<TRIPOS>BOND
     1     1     5   ar
     2     1     6   ar
     3     1     2    1
     4     3     8   ar
     5     3     9   ar
     6     3     4    1
     7     5     9   ar
     8     5    11    1
     9     6     8   ar
    10     6     7    1
    11     8    12    1
    12     9    10    1
    13    11    20    2
    14    11    23    1
    15    13    14    1
    16    13    23   am
    17    13    24    1
    18    14    31    1
    19    14    34    1
    20    14    15    1
    21    16    24    1
    22    16    17    1
    23    16    18    1
    24    16    19    1
    25    20    21    1
    26    20    24    1
    27    21    40   ar
    28    21    45   ar
    29    22    23    2
    30    25    34    1
    31    25    37    1
    32    25    26    1
    33    25    27    1
    34    28    31    1
    35    28    37    1
    36    28    29    1
    37    28    30    1
    38    31    32    1
    39    31    33    1
    40    34    35    1
    41    34    36    1
    42    37    38    1
    43    37    39    1
    44    40    47   ar
    45    41    45   ar
    46    41    48   ar
    47    41    42    1
    48    43    47    1
    49    43    49    1
    50    43    44    1
    51    45    46    1
    52    47    48   ar
    53    49    51    1
    54    49    52    1
    55    49    50    1
    56    51    58   ar
    57    51    60   ar
    58    52    53    1
    59    52    54    1
    60    52    55    1
    61    56    62   ar
    62    56    64   ar
    63    56    57    1
    64    58    64   ar
    65    58    59    1
    66    60    62   ar
    67    60    61    1
    68    62    63    1
    69    64    65    1
@<TRIPOS>SUBSTRUCTURE
     1 RES1        1 GROUP             0 ****  ****    0  
@<TRIPOS>MOLECULE
LIGAND_00499
    65    69     1     0     0
SMALL
USER_CHARGES
****
Generated from the CSD

@<TRIPOS>ATOM
     1 C1      -2.8355  -4.3672 -16.3562   C.ar      1 RES1   0.0000
     2 H2      -3.4688  -5.2167 -16.5881   H         1 RES1   0.0000
     3 C3      -1.2605  -2.1772 -15.7604   C.ar      1 RES1   0.0000
     4 H4      -0.6511  -1.3104 -15.5269   H         1 RES1   0.0000
     5 C5      -1.8481  -4.4951 -15.3838   C.ar      1 RES1   0.0000
     6 C6      -3.0311  -3.1753 -17.0311   C.ar      1 RES1   0.0000
     7 H7      -3.7971  -3.0881 -17.7944   H         1 RES1   0.0000
     8 C8      -2.2378  -2.1094 -16.7121   C.ar      1 RES1   0.0000
     9 C9      -1.0663  -3.3781 -15.1029   C.ar      1 RES1   0.0000
    10 H10     -0.2837  -3.4453 -14.3559   H         1 RES1   0.0000
    11 C11     -1.6269  -5.7786 -14.6417   C.2       1 RES1   0.0000
    12 F12     -2.4282  -0.9323 -17.3680   F         1 RES1   0.0000
    13 N13     -1.2275  -7.9377 -14.1568   N.am      1 RES1   0.0000
    14 C14     -1.4824  -9.4110 -14.3017   C.3       1 RES1   0.0000
    15 H15     -1.1968  -9.7057 -15.3104   H         1 RES1   0.0000
    16 C16     -0.8628  -7.6843 -11.7812   C.3       1 RES1   0.0000
    17 H17     -1.4306  -8.4051 -11.1965   H         1 RES1   0.0000
    18 H18      0.0836  -8.1440 -12.0587   H         1 RES1   0.0000
    19 H19     -0.6503  -6.8255 -11.1481   H         1 RES1   0.0000
    20 C20     -1.7513  -5.9390 -13.3057   C.2       1 RES1   0.0000
    21 C21     -2.0254  -4.9138 -12.2663   C.ar      1 RES1   0.0000
    22 O22     -1.1931  -7.3975 -16.3900   O.2       1 RES1   0.0000
    23 C23     -1.3105  -7.0551 -15.2207   C.2       1 RES1   0.0000
    24 N24     -1.6113  -7.2770 -12.9708   N.3       1 RES1   0.0000
    25 C25     -0.8526 -11.6984 -13.4661   C.3       1 RES1   0.0000
    26 H26     -0.2635 -12.2317 -12.7215   H         1 RES1   0.0000
    27 H27     -0.5472 -12.0122 -14.4632   H         1 RES1   0.0000
    28 C28     -3.1736 -11.2666 -14.2269   C.3       1 RES1   0.0000
    29 H29     -2.9365 -11.5800 -15.2425   H         1 RES1   0.0000
    30 H30     -4.2164 -11.4941 -14.0109   H         1 RES1   0.0000
    31 C31     -2.9538  -9.7664 -14.1031   C.3       1 RES1   0.0000
    32 H32     -3.5486  -9.2558 -14.8590   H         1 RES1   0.0000
    33 H33     -3.2683  -9.4409 -13.1127   H         1 RES1   0.0000
    34 C34     -0.6249 -10.2044 -13.3149   C.3       1 RES1   0.0000
    35 H35     -0.8841  -9.9066 -12.3000   H         1 RES1   0.0000
    36 H36      0.4254  -9.9846 -13.5007   H         1 RES1   0.0000
    37 N37     -2.3019 -12.0087 -13.2692   N.4       1 RES1   1.0000
    38 H38     -2.5650 -11.7534 -12.3227   H         1 RES1   0.0000
    39 H39     -2.4438 -13.0049 -13.4028   H         1 RES1   0.0000
    40 N40     -1.1245  -3.9267 -12.1410   N.ar      1 RES1   0.0000
    41 C41     -3.2824  -3.9653 -10.5120   C.ar      1 RES1   0.0000
    42 H42     -4.1537  -3.9839  -9.8657   H         1 RES1   0.0000
    43 N43     -0.4373  -2.0325 -11.0465   N.pl3     1 RES1   0.0000
    44 H44      0.3968  -2.0688 -11.6325   H         1 RES1   0.0000
    45 C45     -3.1458  -4.9686 -11.4502   C.ar      1 RES1   0.0000
    46 H46     -3.8787  -5.7633 -11.5427   H         1 RES1   0.0000
    47 C47     -1.3484  -3.0085 -11.1872   C.ar      1 RES1   0.0000
    48 N48     -2.3988  -2.9712 -10.3544   N.ar      1 RES1   0.0000
    49 C49     -0.5354  -0.9554 -10.0618   C.3       1 RES1   0.0000
    50 H50     -1.5991  -0.7717  -9.8451   H         1 RES1   0.0000
    51 C51      0.0868   0.3364 -10.5544   C.ar      1 RES1   0.0000
    52 C52      0.1448  -1.4335  -8.7843   C.3       1 RES1   0.0000
    53 H53      0.3016  -0.6049  -8.0969   H         1 RES1   0.0000
    54 H54     -0.4617  -2.1825  -8.2793   H         1 RES1   0.0000
    55 H55      1.1133  -1.8761  -9.0073   H         1 RES1   0.0000
    56 C56      1.2438   2.7056 -11.4538   C.ar      1 RES1   0.0000
    57 H57      1.6945   3.6280 -11.8047   H         1 RES1   0.0000
    58 C58      1.4319   0.5973 -10.3362   C.ar      1 RES1   0.0000
    59 H59      2.0401  -0.1299  -9.8086   H         1 RES1   0.0000
    60 C60     -0.6701   1.2844 -11.2291   C.ar      1 RES1   0.0000
    61 H61     -1.7245   1.1033 -11.4099   H         1 RES1   0.0000
    62 C62     -0.0936   2.4614 -11.6759   C.ar      1 RES1   0.0000
    63 H63     -0.6973   3.1930 -12.2025   H         1 RES1   0.0000
    64 C64      2.0069   1.7744 -10.7843   C.ar      1 RES1   0.0000
    65 H65      3.0605   1.9634 -10.6077   H         1 RES1   0.0000
@<TRIPOS>BOND
     1     1     5   ar
     2     1     6   ar
     3     1     2    1
     4     3     8   ar
     5     3     9   ar
     6     3     4    1
     7     5     9   ar
     8     5    11    1
     9     6     8   ar
    10     6     7    1
    11     8    12    1
    12     9    10    1
    13    11    20    2
    14    11    23    1
    15    13    14    1
    16    13    23   am
    17    13    24    1
    18    14    31    1
    19    14    34    1
    20    14    15    1
    21    16    24    1
    22    16    17    1
    23    16    18    1
    24    16    19    1
    25    20    21    1
    26    20    24    1
    27    21    40   ar
    28    21    45   ar
    29    22    23    2
    30    25    34    1
    31    25    37    1
    32    25    26    1
    33    25    27    1
    34    28    31    1
    35    28    37    1
    36    28    29    1
    37    28    30    1
    38    31    32    1
    39    31    33    1
    40    34    35    1
    41    34    36    1
    42    37    38    1
    43    37    39    1
    44    40    47   ar
    45    41    45   ar
    46    41    48   ar
    47    41    42    1
    48    43    47    1
    49    43    49    1
    50    43    44    1
    51    45    46    1
    52    47    48   ar
    53    49    51    1
    54    49    52    1
    55    49    50    1
    56    51    58   ar
    57    51    60   ar
    58    52    53    1
    59    52    54    1
    60    52    55    1
    61    56    62   ar
    62    56    64   ar
    63    56    57    1
    64    58    64   ar
    65    58    59    1
    66    60    62   ar
    67    60    61    1
    68    62    63    1
    69    64    65    1
@<TRIPOS>SUBSTRUCTURE
     1 RES1        1 GROUP             0 ****  ****    0  
@<TRIPOS>MOLECULE
LIGAND_00500
    65    69     1     0     0
SMALL
USER_CHARGES
****
Generated from the CSD

@<TRIPOS>ATOM
     1 C1      -3.0248  -3.8117 -15.3691   C.ar      1 RES1   0.0000
     2 H2      -3.8579  -4.2218 -14.8086   H         1 RES1   0.0000
     3 C3      -0.9094  -2.7260 -16.7756   C.ar      1 RES1   0.0000
     4 H4      -0.0813  -2.2894 -17.3241   H         1 RES1   0.0000
     5 C5      -1.8085  -4.4880 -15.3803   C.ar      1 RES1   0.0000
     6 C6      -3.1929  -2.6215 -16.0545   C.ar      1 RES1   0.0000
     7 H7      -4.1477  -2.1065 -16.0477   H         1 RES1   0.0000
     8 C8      -2.1271  -2.1087 -16.7387   C.ar      1 RES1   0.0000
     9 C9      -0.7584  -3.9218 -16.0977   C.ar      1 RES1   0.0000
    10 H10      0.2005  -4.4262 -16.1329   H         1 RES1   0.0000
    11 C11     -1.6101  -5.7761 -14.6397   C.2       1 RES1   0.0000
    12 F12     -2.2837  -0.9357 -17.4105   F         1 RES1   0.0000
    13 N13     -1.2406  -7.9410 -14.1570   N.am      1 RES1   0.0000
    14 C14     -1.5106  -9.4109 -14.3092   C.3       1 RES1   0.0000
    15 H15     -1.2170  -9.7059 -15.3155   H         1 RES1   0.0000
    16 C16     -0.8997  -7.6987 -11.7768   C.3       1 RES1   0.0000
    17 H17     -1.4821  -8.4148 -11.2007   H         1 RES1   0.0000
    18 H18      0.0445  -8.1682 -12.0450   H         1 RES1   0.0000
    19 H19     -0.6847  -6.8442 -11.1386   H         1 RES1   0.0000
    20 C20     -1.7513  -5.9390 -13.3057   C.2       1 RES1   0.0000
    21 C21     -2.0254  -4.9138 -12.2663   C.ar      1 RES1   0.0000
    22 O22     -1.1751  -7.3947 -16.3880   O.2       1 RES1   0.0000
    23 C23     -1.3018  -7.0544 -15.2191   C.2       1 RES1   0.0000
    24 N24     -1.6302  -7.2794 -12.9734   N.3       1 RES1   0.0000
    25 C25     -0.9161 -11.7077 -13.4736   C.3       1 RES1   0.0000
    26 H26     -0.3415 -12.2498 -12.7240   H         1 RES1   0.0000
    27 H27     -0.6031 -12.0220 -14.4682   H         1 RES1   0.0000
    28 C28     -3.2233 -11.2474 -14.2590   C.3       1 RES1   0.0000
    29 H29     -2.9784 -11.5605 -15.2728   H         1 RES1   0.0000
    30 H30     -4.2710 -11.4637 -14.0554   H         1 RES1   0.0000
    31 C31     -2.9880  -9.7502 -14.1282   C.3       1 RES1   0.0000
    32 H32     -3.5685  -9.2306 -14.8891   H         1 RES1   0.0000
    33 H33     -3.3099  -9.4240 -13.1404   H         1 RES1   0.0000
    34 C34     -0.6732 -10.2168 -13.3153   C.3       1 RES1   0.0000
    35 H35     -0.9404  -9.9191 -12.3025   H         1 RES1   0.0000
    36 H36      0.3815 -10.0085 -13.4886   H         1 RES1   0.0000
    37 N37     -2.3709 -12.0022 -13.2939   N.4       1 RES1   1.0000
    38 H38     -2.6417 -11.7467 -12.3496   H         1 RES1   0.0000
    39 H39     -2.5226 -12.9962 -13.4320   H         1 RES1   0.0000
    40 N40     -1.1245  -3.9267 -12.1410   N.ar      1 RES1   0.0000
    41 C41     -3.2824  -3.9653 -10.5120   C.ar      1 RES1   0.0000
    42 H42     -4.1537  -3.9839  -9.8657   H         1 RES1   0.0000
    43 N43     -0.4373  -2.0325 -11.0465   N.pl3     1 RES1   0.0000
    44 H44      0.3968  -2.0688 -11.6325   H         1 RES1   0.0000
    45 C45     -3.1458  -4.9686 -11.4502   C.ar      1 RES1   0.0000
    46 H46     -3.8787  -5.7633 -11.5427   H         1 RES1   0.0000
    47 C47     -1.3484  -3.0085 -11.1872   C.ar      1 RES1   0.0000
    48 N48     -2.3988  -2.9712 -10.3544   N.ar      1 RES1   0.0000
    49 C49     -0.5354  -0.9553 -10.0618   C.3       1 RES1   0.0000
    50 H50     -1.5992  -0.7716  -9.8452   H         1 RES1   0.0000
    51 C51      0.0869   0.3364 -10.5544   C.ar      1 RES1   0.0000
    52 C52      0.1446  -1.4335  -8.7843   C.3       1 RES1   0.0000
    53 H53      0.2484  -0.6166  -8.0731   H         1 RES1   0.0000
    54 H54     -0.4333  -2.2240  -8.3102   H         1 RES1   0.0000
    55 H55      1.1374  -1.8225  -9.0000   H         1 RES1   0.0000
    56 C56      1.2442   2.7054 -11.4537   C.ar      1 RES1   0.0000
    57 H57      1.6949   3.6278 -11.8047   H         1 RES1   0.0000
    58 C58      1.4320   0.5974 -10.3358   C.ar      1 RES1   0.0000
    59 H59      2.0400  -0.1298  -9.8079   H         1 RES1   0.0000
    60 C60     -0.6698   1.2843 -11.2295   C.ar      1 RES1   0.0000
    61 H61     -1.7241   1.1031 -11.4106   H         1 RES1   0.0000
    62 C62     -0.0931   2.4612 -11.6763   C.ar      1 RES1   0.0000
    63 H63     -0.6968   3.1927 -12.2032   H         1 RES1   0.0000
    64 C64      2.0070   1.7744 -10.7839   C.ar      1 RES1   0.0000
    65 H65      3.0606   1.9634 -10.6070   H         1 RES1   0.0000
@<TRIPOS>BOND
     1     1     5   ar
     2     1     6   ar
     3     1     2    1
     4     3     8   ar
     5     3     9   ar
     6     3     4    1
     7     5     9   ar
     8     5    11    1
     9     6     8   ar
    10     6     7    1
    11     8    12    1
    12     9    10    1
    13    11    20    2
    14    11    23    1
    15    13    14    1
    16    13    23   am
    17    13    24    1
    18    14    31    1
    19    14    34    1
    20    14    15    1
    21    16    24    1
    22    16    17    1
    23    16    18    1
    24    16    19    1
    25    20    21    1
    26    20    24    1
    27    21    40   ar
    28    21    45   ar
    29    22    23    2
    30    25    34    1
    31    25    37    1
    32    25    26    1
    33    25    27    1
    34    28    31    1
    35    28    37    1
    36    28    29    1
    37    28    30    1
    38    31    32    1
    39    31    33    1
    40    34    35    1
    41    34    36    1
    42    37    38    1
    43    37    39    1
    44    40    47   ar
    45    41    45   ar
    46    41    48   ar
    47    41    42    1
    48    43    47    1
    49    43    49    1
    50    43    44    1
    51    45    46    1
    52    47    48   ar
    53    49    51    1
    54    49    52    1
    55    49    50    1
    56    51    58   ar
    57    51    60   ar
    58    52    53    1
    59    52    54    1
    60    52    55    1
    61    56    62   ar
    62    56    64   ar
    63    56    57    1
    64    58    64   ar
    65    58    59    1
    66    60    62   ar
    67    60    61    1
    68    62    63    1
    69    64    65    1
@<TRIPOS>SUBSTRUCTURE
     1 RES1        1 GROUP             0 ****  ****    0  
