@<TRIPOS>MOLECULE
pdb1bqm
   42    43     0     0     0
SMALL
NO_CHARGES

@<TRIPOS>ATOM
      1 C1          1.2834   -0.5854   -1.9212 C.3       1 <0>         0.0000
      2 C2          0.6100   -0.5700   -3.4480 C.2       1 <0>         0.0000
      3 C3         -1.3640    0.7060   -2.5334 C.ar      1 <0>         0.0000
      4 C4         -0.8124    0.6060   -1.1023 C.ar      1 <0>         0.0000
      5 C5         -1.6579    0.8084    0.0315 C.ar      1 <0>         0.0000
      6 C6         -3.0351    1.0849   -0.1178 C.ar      1 <0>         0.0000
      7 C7         -3.5964    1.3885   -1.5263 C.ar      1 <0>         0.0000
      8 C8         -2.6898    1.2639   -2.7241 C.ar      1 <0>         0.0000
      9 C9          1.3948    0.6505    0.4492 C.2       1 <0>         0.0000
     10 C10         1.2907    2.4422    2.2955 C.3       1 <0>         0.0000
     11 C11         1.8845    2.1205    3.6937 C.3       1 <0>         0.0000
     12 C12         2.3630    3.0524    1.3258 C.3       1 <0>         0.0000
     13 C13         1.4725   -2.0594   -1.3162 C.3       1 <0>         0.0000
     14 C14         0.3809   -4.1843    0.1313 C.3       1 <0>         0.0000
     15 C15        -5.2474    1.7179    1.2151 C.3       1 <0>         0.0000
     16 N1          0.6072    0.3819   -0.8781 N.am      1 <0>         0.0000
     17 N2         -0.5685    0.2397   -3.6639 N.pl3     1 <0>         0.0000
     18 O1          2.6817    0.3945    0.4956 O.2       1 <0>         0.0000
     19 O2          0.6729    1.1868    1.5662 O.3       1 <0>         0.0000
     20 O3         -3.8954    1.0410    1.1660 O.3       1 <0>         0.0000
     21 S1          1.5505   -1.3997   -4.7692 S.2       1 <0>         0.0000
     22 S2          0.2435   -2.3405    0.0858 S.3       1 <0>         0.0000
     23 H1          2.2872   -0.1708   -2.0958 H         1 <0>         0.0000
     24 H2         -1.2352    0.7487    1.0235 H         1 <0>         0.0000
     25 H3         -4.6270    1.6866   -1.6505 H         1 <0>         0.0000
     26 H4         -3.0195    1.5826   -3.7019 H         1 <0>         0.0000
     27 H5          0.4928    3.1689    2.5082 H         1 <0>         0.0000
     28 H6          2.9793    2.0444    3.6190 H         1 <0>         0.0000
     29 H7          1.6201    2.9233    4.3977 H         1 <0>         0.0000
     30 H8          1.4747    1.1657    4.0549 H         1 <0>         0.0000
     31 H9          1.9184    3.1952    0.3298 H         1 <0>         0.0000
     32 H10         2.7022    4.0224    1.7182 H         1 <0>         0.0000
     33 H11         3.2202    2.3672    1.2496 H         1 <0>         0.0000
     34 H12         1.2980   -2.8030   -2.1078 H         1 <0>         0.0000
     35 H13         2.4961   -2.1626   -0.9268 H         1 <0>         0.0000
     36 H14         0.4082   -4.5759   -0.8963 H         1 <0>         0.0000
     37 H15         1.3038   -4.4702    0.6571 H         1 <0>         0.0000
     38 H16        -0.4877   -4.6035    0.6602 H         1 <0>         0.0000
     39 H17        -5.5379    1.8822    2.2632 H         1 <0>         0.0000
     40 H18        -5.1921    2.6852    0.6942 H         1 <0>         0.0000
     41 H19        -5.9954    1.0784    0.7235 H         1 <0>         0.0000
     42 H20        -0.8403    0.4819   -4.5953 H         1 <0>         0.0000
@<TRIPOS>BOND
     1    1    2 1
     2    3    4 ar
     3    4    5 ar
     4    5    6 ar
     5    6    7 ar
     6    3    8 ar
     7    7    8 ar
     8   10   11 1
     9   10   12 1
    10    1   13 1
    11    1   16 1
    12    4   16 1
    13    9   16 am
    14    2   17 1
    15    3   17 1
    16    9   18 2
    17    9   19 1
    18   10   19 1
    19    6   20 1
    20   15   20 1
    21    2   21 2
    22   13   22 1
    23   14   22 1
    24    1   23 1
    25    5   24 1
    26    7   25 1
    27    8   26 1
    28   10   27 1
    29   11   28 1
    30   11   29 1
    31   11   30 1
    32   12   31 1
    33   12   32 1
    34   12   33 1
    35   13   34 1
    36   13   35 1
    37   14   36 1
    38   14   37 1
    39   14   38 1
    40   15   39 1
    41   15   40 1
    42   15   41 1
    43   17   42 1
@<TRIPOS>MOLECULE
pdb1klm
   60    63     0     0     0
SMALL
NO_CHARGES

@<TRIPOS>ATOM
      1 C1         -0.3058   -0.7908   -0.5696 C.ar      1 <0>         0.0000
      2 C2          0.4705   -0.2193    0.4658 C.ar      1 <0>         0.0000
      3 C3          1.4812   -1.0055    0.9977 C.ar      1 <0>         0.0000
      4 C4          1.6996   -2.2904    0.5324 C.ar      1 <0>         0.0000
      5 C5          0.8698   -2.7527   -0.4983 C.ar      1 <0>         0.0000
      6 C6         -1.6324   -0.2177   -2.5656 C.3       1 <0>         0.0000
      7 C7         -2.5344    0.8705   -3.0831 C.3       1 <0>         0.0000
      8 C8         -3.6511    0.9517   -0.9235 C.3       1 <0>         0.0000
      9 C9         -2.6354   -0.0255   -0.3797 C.3       1 <0>         0.0000
     10 C10        -4.8645    0.1743   -2.9496 C.2       1 <0>         0.0000
     11 C11        -6.1258   -0.0082   -2.1311 C.2       1 <0>         0.0000
     12 C12        -6.6517    0.6446   -1.0380 C.2       1 <0>         0.0000
     13 C13        -8.8200    0.1850    0.3341 C.ar      1 <0>         0.0000
     14 C14        -9.9030   -0.6904    0.3819 C.ar      1 <0>         0.0000
     15 C15       -10.0587   -1.7264   -0.5283 C.ar      1 <0>         0.0000
     16 C16        -9.1262   -1.9531   -1.5344 C.ar      1 <0>         0.0000
     17 C17        -8.0204   -1.0804   -1.5990 C.ar      1 <0>         0.0000
     18 C18        -7.8622   -0.0264   -0.6792 C.ar      1 <0>         0.0000
     19 C19         1.0991    1.8825    1.7857 C.3       1 <0>         0.0000
     20 C20         2.5253    1.9032    1.2859 C.3       1 <0>         0.0000
     21 C21         1.0366    1.3751    3.1944 C.3       1 <0>         0.0000
     22 C22        -9.6579   -0.0095    3.7260 C.3       1 <0>         0.0000
     23 N1          0.2150    1.0919    0.8999 N.pl3     1 <0>         0.0000
     24 N2         -0.1217   -2.0222   -1.0395 N.ar      1 <0>         0.0000
     25 N3         -1.3503   -0.0132   -1.1239 N.pl3     1 <0>         0.0000
     26 N4         -3.8075    0.7203   -2.3672 N.am      1 <0>         0.0000
     27 N5         -6.9625   -1.0445   -2.4674 N.pl3     1 <0>         0.0000
     28 N6        -10.8816   -0.5255    1.3651 N.pl3     1 <0>         0.0000
     29 O1         -4.8586   -0.1973   -4.1507 O.2       1 <0>         0.0000
     30 O2        -12.1698    0.4886    3.2239 O.2       1 <0>         0.0000
     31 O3        -10.5102    1.8312    2.0852 O.2       1 <0>         0.0000
     32 S1        -10.8910    0.5463    2.5843 S.o2      1 <0>         0.0000
     33 H1          2.1059   -0.6102    1.7850 H         1 <0>         0.0000
     34 H2          2.4789   -2.9126    0.9472 H         1 <0>         0.0000
     35 H3          1.0355   -3.7498   -0.8787 H         1 <0>         0.0000
     36 H4         -2.1258   -1.1913   -2.7025 H         1 <0>         0.0000
     37 H5         -0.6842   -0.1909   -3.1226 H         1 <0>         0.0000
     38 H6         -2.0963    1.8608   -2.8899 H         1 <0>         0.0000
     39 H7         -2.6754    0.7895   -4.1710 H         1 <0>         0.0000
     40 H8         -4.6164    0.8024   -0.4177 H         1 <0>         0.0000
     41 H9         -3.3095    1.9821   -0.7459 H         1 <0>         0.0000
     42 H10        -2.4287    0.2408    0.6674 H         1 <0>         0.0000
     43 H11        -3.0634   -1.0337   -0.4818 H         1 <0>         0.0000
     44 H12        -6.2274    1.5055   -0.5428 H         1 <0>         0.0000
     45 H13        -8.7182    0.9925    1.0441 H         1 <0>         0.0000
     46 H14       -10.9226   -2.3702   -0.4535 H         1 <0>         0.0000
     47 H15        -9.2439   -2.7643   -2.2376 H         1 <0>         0.0000
     48 H16         0.7314    2.9191    1.7725 H         1 <0>         0.0000
     49 H17         2.5289    1.9082    0.1859 H         1 <0>         0.0000
     50 H18         3.0310    2.8063    1.6582 H         1 <0>         0.0000
     51 H19         3.0541    1.0100    1.6499 H         1 <0>         0.0000
     52 H20         1.0213    0.2752    3.1882 H         1 <0>         0.0000
     53 H21         1.9187    1.7262    3.7499 H         1 <0>         0.0000
     54 H22         0.1238    1.7515    3.6792 H         1 <0>         0.0000
     55 H23        -8.6976   -0.1248    3.2020 H         1 <0>         0.0000
     56 H24        -9.5479    0.7282    4.5345 H         1 <0>         0.0000
     57 H25        -9.9619   -0.9774    4.1511 H         1 <0>         0.0000
     58 H26         0.1573    1.6287    0.0582 H         1 <0>         0.0000
     59 H27        -6.8206   -1.6760   -3.2297 H         1 <0>         0.0000
     60 H28       -11.7068   -0.3036    0.8457 H         1 <0>         0.0000
@<TRIPOS>BOND
     1    1    2 ar
     2    2    3 ar
     3    3    4 ar
     4    4    5 ar
     5    6    7 1
     6    8    9 1
     7   10   11 1
     8   11   12 2
     9   13   14 ar
    10   14   15 ar
    11   15   16 ar
    12   16   17 ar
    13   12   18 1
    14   13   18 ar
    15   17   18 ar
    16   19   20 1
    17   19   21 1
    18    2   23 1
    19   19   23 1
    20    1   24 ar
    21    5   24 ar
    22    1   25 1
    23    6   25 1
    24    9   25 1
    25    7   26 1
    26    8   26 1
    27   10   26 am
    28   11   27 1
    29   17   27 1
    30   14   28 1
    31   10   29 2
    32   22   32 1
    33   28   32 1
    34   30   32 2
    35   31   32 2
    36    3   33 1
    37    4   34 1
    38    5   35 1
    39    6   36 1
    40    6   37 1
    41    7   38 1
    42    7   39 1
    43    8   40 1
    44    8   41 1
    45    9   42 1
    46    9   43 1
    47   12   44 1
    48   13   45 1
    49   15   46 1
    50   16   47 1
    51   19   48 1
    52   20   49 1
    53   20   50 1
    54   20   51 1
    55   21   52 1
    56   21   53 1
    57   21   54 1
    58   22   55 1
    59   22   56 1
    60   22   57 1
    61   23   58 1
    62   27   59 1
    63   28   60 1
@<TRIPOS>MOLECULE
pdb1rt3
   36    38     0     0     0
SMALL
NO_CHARGES

@<TRIPOS>ATOM
      1 N1         -0.5984   -0.6766   -1.7636 N.ar      1 <0>         0.0000
      2 C1         -1.5288   -0.1928   -2.6125 C.ar      1 <0>         0.0000
      3 C2         -2.5148    0.6802   -2.2037 C.ar      1 <0>         0.0000
      4 C3         -2.5562    1.0758   -0.8841 C.ar      1 <0>         0.0000
      5 C4         -1.6118    0.5878    0.0017 C.ar      1 <0>         0.0000
      6 C5         -1.7471    0.9171    1.4816 C.2       1 <0>         0.0000
      7 O1         -2.8845    0.9831    1.9543 O.2       1 <0>         0.0000
      8 N2         -0.6763    1.1371    2.2533 N.am      1 <0>         0.0000
      9 C6         -0.8677    1.4890    3.6804 C.3       1 <0>         0.0000
     10 C7          0.7036    1.1043    1.8517 C.ar      1 <0>         0.0000
     11 C8          1.5910    2.0130    2.4220 C.ar      1 <0>         0.0000
     12 C9          2.9349    1.9783    2.0989 C.ar      1 <0>         0.0000
     13 C10         3.4080    1.0356    1.1995 C.ar      1 <0>         0.0000
     14 N3          4.8300    1.0005    0.8564 N.pl3     1 <0>         0.0000
     15 O2          5.1927    0.1802    0.0478 O.2       1 <0>         0.0000
     16 O3          5.5439    1.7886    1.4224 O.2       1 <0>         0.0000
     17 C11         2.5307    0.1232    0.6311 C.ar      1 <0>         0.0000
     18 C12         1.1819    0.1497    0.9533 C.ar      1 <0>         0.0000
     19 N4          0.2963   -0.8071    0.4239 N.pl3     1 <0>         0.0000
     20 C13         0.9269   -2.0960   -0.0095 C.3       1 <0>         0.0000
     21 C14         0.4859   -3.2934    0.7725 C.3       1 <0>         0.0000
     22 C15        -0.6383   -0.2913   -0.4762 C.ar      1 <0>         0.0000
     23 H1         -1.5003   -0.4998   -3.6476 H         1 <0>         0.0000
     24 H2         -3.2452    1.0492   -2.9085 H         1 <0>         0.0000
     25 H3         -3.3191    1.7607   -0.5444 H         1 <0>         0.0000
     26 H4         -0.9151    0.5694    4.2822 H         1 <0>         0.0000
     27 H5         -0.0243    2.1073    4.0217 H         1 <0>         0.0000
     28 H6         -1.8058    2.0515    3.7964 H         1 <0>         0.0000
     29 H7          1.2269    2.7505    3.1220 H         1 <0>         0.0000
     30 H8          3.6163    2.6860    2.5475 H         1 <0>         0.0000
     31 H9          2.9007   -0.6129   -0.0672 H         1 <0>         0.0000
     32 H10         0.6605   -2.2644   -1.0634 H         1 <0>         0.0000
     33 H11         2.0093   -1.9906    0.1560 H         1 <0>         0.0000
     34 H12         0.3777   -4.1542    0.0962 H         1 <0>         0.0000
     35 H13         1.2362   -3.5247    1.5429 H         1 <0>         0.0000
     36 H14        -0.4805   -3.0814    1.2532 H         1 <0>         0.0000
@<TRIPOS>BOND
     1    1    2 ar
     2    2    3 ar
     3    3    4 ar
     4    4    5 ar
     5    5    6 1
     6    6    7 2
     7    6    8 am
     8    8    9 1
     9    8   10 1
    10   10   11 ar
    11   11   12 ar
    12   12   13 ar
    13   13   14 1
    14   14   15 2
    15   14   16 2
    16   13   17 ar
    17   10   18 ar
    18   17   18 ar
    19   18   19 1
    20   19   20 1
    21   20   21 1
    22    1   22 ar
    23    5   22 ar
    24   19   22 1
    25    2   23 1
    26    3   24 1
    27    4   25 1
    28    9   26 1
    29    9   27 1
    30    9   28 1
    31   11   29 1
    32   12   30 1
    33   17   31 1
    34   20   32 1
    35   20   33 1
    36   21   34 1
    37   21   35 1
    38   21   36 1
@<TRIPOS>MOLECULE
pdb1vru
   39    40     0     0     0
SMALL
NO_CHARGES

@<TRIPOS>ATOM
      1 C1          0.1456   -2.8757    0.1009 C.2       1 <0>         0.0000
      2 C2          0.1194   -1.3758    0.1980 C.3       1 <0>         0.0000
      3 O1         -0.8517   -3.4311   -0.3708 O.2       1 <0>         0.0000
      4 N1          1.2189   -3.5437    0.5271 N.am      1 <0>         0.0000
      5 C3         -0.8597   -0.7043   -0.8061 C.ar      1 <0>         0.0000
      6 C4         -0.6852   -0.8555   -2.1772 C.ar      1 <0>         0.0000
      7 C5         -1.5760   -0.2218   -3.0547 C.ar      1 <0>         0.0000
      8 C6         -2.6273    0.5845   -2.5563 C.ar      1 <0>         0.0000
      9 C7         -2.7881    0.7346   -1.1957 C.ar      1 <0>         0.0000
     10 C8         -1.9103    0.1114   -0.3277 C.ar      1 <0>         0.0000
     11 Cl1         0.6723   -1.7031   -2.8716 Cl        1 <0>         0.0000
     12 Cl2        -2.1375    0.3922    1.3376 Cl        1 <0>         0.0000
     13 N2          1.4611   -0.8507    0.1130 N.pl3     1 <0>         0.0000
     14 C9          1.9666    0.2604    0.7642 C.ar      1 <0>         0.0000
     15 C10         3.2364    0.7748    0.4416 C.ar      1 <0>         0.0000
     16 C11         3.7021    1.8514    1.1533 C.ar      1 <0>         0.0000
     17 C12         2.9418    2.4290    2.1497 C.ar      1 <0>         0.0000
     18 C13         1.6984    1.9373    2.4604 C.ar      1 <0>         0.0000
     19 C14         1.2086    0.8546    1.7651 C.ar      1 <0>         0.0000
     20 C15         4.1099    0.2155   -0.7068 C.2       1 <0>         0.0000
     21 O2          3.7463   -0.7706   -1.3695 O.2       1 <0>         0.0000
     22 C16         5.4211    0.8894   -1.0995 C.3       1 <0>         0.0000
     23 C17         0.8620    2.6198    3.5530 C.3       1 <0>         0.0000
     24 H1         -0.2883   -1.1162    1.1861 H         1 <0>         0.0000
     25 H2          1.8975   -2.8943    0.8702 H         1 <0>         0.0000
     26 H3          1.3277   -4.5376    0.5067 H         1 <0>         0.0000
     27 H4         -1.4591   -0.3499   -4.1207 H         1 <0>         0.0000
     28 H5         -3.3009    1.0802   -3.2396 H         1 <0>         0.0000
     29 H6         -3.5968    1.3368   -0.8088 H         1 <0>         0.0000
     30 H7          2.0352   -1.6024    0.4377 H         1 <0>         0.0000
     31 H8          4.6794    2.2533    0.9302 H         1 <0>         0.0000
     32 H9          3.3300    3.2786    2.6919 H         1 <0>         0.0000
     33 H10         0.2290    0.4649    1.9993 H         1 <0>         0.0000
     34 H11         5.4392    1.0516   -2.1873 H         1 <0>         0.0000
     35 H12         5.5048    1.8571   -0.5832 H         1 <0>         0.0000
     36 H13         6.2648    0.2453   -0.8110 H         1 <0>         0.0000
     37 H14         1.4854    2.7830    4.4445 H         1 <0>         0.0000
     38 H15         0.4933    3.5873    3.1816 H         1 <0>         0.0000
     39 H16         0.0082    1.9778    3.8155 H         1 <0>         0.0000
@<TRIPOS>BOND
     1    1    2 1
     2    1    3 2
     3    1    4 am
     4    2    5 1
     5    5    6 ar
     6    6    7 ar
     7    7    8 ar
     8    8    9 ar
     9    5   10 ar
    10    9   10 ar
    11    6   11 1
    12   10   12 1
    13    2   13 1
    14   13   14 1
    15   14   15 ar
    16   15   16 ar
    17   16   17 ar
    18   17   18 ar
    19   14   19 ar
    20   18   19 ar
    21   15   20 1
    22   20   21 2
    23   20   22 1
    24   18   23 1
    25    2   24 1
    26    4   25 1
    27    4   26 1
    28    7   27 1
    29    8   28 1
    30    9   29 1
    31   13   30 1
    32   16   31 1
    33   17   32 1
    34   19   33 1
    35   22   34 1
    36   22   35 1
    37   22   36 1
    38   23   37 1
    39   23   38 1
    40   23   39 1
@<TRIPOS>MOLECULE
pdb1tvr
   41    43     0     0     0
SMALL
NO_CHARGES

@<TRIPOS>ATOM
      1 N1         -0.7098   -0.2817   -3.5729 N.pl3     1 <0>         0.0000
      2 C1         -1.3211    0.0457   -2.3579 C.ar      1 <0>         0.0000
      3 C2          0.4324   -1.1241   -3.3035 C.2       1 <0>         0.0000
      4 S1          1.4880   -1.7970   -4.5559 S.2       1 <0>         0.0000
      5 N2          0.5111   -1.3110   -1.8406 N.pl3     1 <0>         0.0000
      6 C3         -0.5935   -0.5643   -1.3467 C.ar      1 <0>         0.0000
      7 C4          1.3753   -2.2898   -1.1998 C.3       1 <0>         0.0000
      8 C5          2.0733   -1.8891    0.1061 C.3       1 <0>         0.0000
      9 N3          1.3112   -1.2705    1.2124 N.3       1 <0>         0.0000
     10 C6         -0.1457   -1.2770    1.1479 C.3       1 <0>         0.0000
     11 C7         -0.8683   -0.4667    0.0596 C.ar      1 <0>         0.0000
     12 C8         -2.0168    0.3473    0.4158 C.ar      1 <0>         0.0000
     13 Cl1        -4.2639    1.8882   -0.3178 Cl        1 <0>         0.0000
     14 C9         -2.7886    0.9975   -0.6650 C.ar      1 <0>         0.0000
     15 C10        -2.4134    0.8249   -2.0380 C.ar      1 <0>         0.0000
     16 C11         2.5147   -3.2276    0.6315 C.3       1 <0>         0.0000
     17 C12         2.0228   -0.4710    2.2234 C.3       1 <0>         0.0000
     18 C13         1.9047    0.9152    1.7955 C.2       1 <0>         0.0000
     19 C14         2.0505    2.0451    2.5006 C.2       1 <0>         0.0000
     20 C15         1.8860    3.2396    1.5162 C.3       1 <0>         0.0000
     21 C16         2.3763    1.8961    4.0093 C.3       1 <0>         0.0000
     22 H1         -1.0131    0.0177   -4.4775 H         1 <0>         0.0000
     23 H2          0.7474   -3.1627   -0.9680 H         1 <0>         0.0000
     24 H3          2.1940   -2.4519   -1.9164 H         1 <0>         0.0000
     25 H4          2.7979   -1.1045   -0.1573 H         1 <0>         0.0000
     26 H5         -0.4402   -2.3257    0.9943 H         1 <0>         0.0000
     27 H6         -0.4501   -0.7856    2.0838 H         1 <0>         0.0000
     28 H7         -2.3017    0.4753    1.4497 H         1 <0>         0.0000
     29 H8         -2.9845    1.3037   -2.8197 H         1 <0>         0.0000
     30 H9          2.6225   -3.9332   -0.2055 H         1 <0>         0.0000
     31 H10         3.4809   -3.1189    1.1459 H         1 <0>         0.0000
     32 H11         1.7634   -3.6096    1.3384 H         1 <0>         0.0000
     33 H12         1.5704   -0.6101    3.2164 H         1 <0>         0.0000
     34 H13         3.0762   -0.7764    2.3076 H         1 <0>         0.0000
     35 H14         1.6631    1.0539    0.7521 H         1 <0>         0.0000
     36 H15         1.8472    4.1808    2.0842 H         1 <0>         0.0000
     37 H16         2.7404    3.2643    0.8239 H         1 <0>         0.0000
     38 H17         0.9540    3.1178    0.9448 H         1 <0>         0.0000
     39 H18         3.4670    1.8608    4.1477 H         1 <0>         0.0000
     40 H19         1.9646    2.7549    4.5597 H         1 <0>         0.0000
     41 H20         1.9283    0.9667    4.3908 H         1 <0>         0.0000
@<TRIPOS>BOND
     1    1    2 1
     2    1    3 1
     3    3    4 2
     4    3    5 1
     5    2    6 ar
     6    5    6 1
     7    5    7 1
     8    7    8 1
     9    8    9 1
    10    9   10 1
    11    6   11 ar
    12   10   11 1
    13   11   12 ar
    14   12   14 ar
    15   13   14 1
    16    2   15 ar
    17   14   15 ar
    18    8   16 1
    19    9   17 1
    20   17   18 1
    21   18   19 2
    22   19   20 1
    23   19   21 1
    24    1   22 1
    25    7   23 1
    26    7   24 1
    27    8   25 1
    28   10   26 1
    29   10   27 1
    30   12   28 1
    31   15   29 1
    32   16   30 1
    33   16   31 1
    34   16   32 1
    35   17   33 1
    36   17   34 1
    37   18   35 1
    38   20   36 1
    39   20   37 1
    40   20   38 1
    41   21   39 1
    42   21   40 1
    43   21   41 1
@<TRIPOS>MOLECULE
pdb1dtt
   39    40     0     0     0
SMALL
NO_CHARGES

@<TRIPOS>ATOM
      1 C1         -1.4630   -0.1378   -2.7669 C.ar      1 <0>         0.0000
      2 N1         -1.3463   -0.3707   -1.3964 N.ar      1 <0>         0.0000
      3 C2         -2.2747    0.0956   -0.4693 C.ar      1 <0>         0.0000
      4 C3         -3.3703    0.8113   -0.9565 C.ar      1 <0>         0.0000
      5 C4         -3.4928    1.0589   -2.3273 C.ar      1 <0>         0.0000
      6 C5         -2.5637    0.5903   -3.2434 C.ar      1 <0>         0.0000
      7 Cl1        -4.5755    1.3650    0.1074 Cl        1 <0>         0.0000
      8 N2         -0.6329   -0.6432   -3.7140 N.pl3     1 <0>         0.0000
      9 C6          0.4851   -1.3618   -3.6001 C.2       1 <0>         0.0000
     10 S1          1.5011   -1.5605   -4.9992 S.2       1 <0>         0.0000
     11 N3          0.7277   -1.9331   -2.3952 N.pl3     1 <0>         0.0000
     12 C7          2.1002   -2.1726   -1.9077 C.3       1 <0>         0.0000
     13 C8          2.0836   -2.4731   -0.3774 C.3       1 <0>         0.0000
     14 C9          2.2164   -1.1827    0.4358 C.ar      1 <0>         0.0000
     15 N4          3.3018   -0.3563    0.2064 N.ar      1 <0>         0.0000
     16 C10         3.4632    0.8667    0.8240 C.ar      1 <0>         0.0000
     17 C11         2.4940    1.3044    1.7288 C.ar      1 <0>         0.0000
     18 C12         1.3785    0.4964    1.9935 C.ar      1 <0>         0.0000
     19 C13         1.2219   -0.7546    1.3439 C.ar      1 <0>         0.0000
     20 O1          0.4672    0.9413    2.9331 O.3       1 <0>         0.0000
     21 C14        -0.4530    1.8871    2.4087 C.3       1 <0>         0.0000
     22 C15        -1.4658    2.2481    3.4706 C.3       1 <0>         0.0000
     23 F1          0.1394   -1.5091    1.5899 F         1 <0>         0.0000
     24 H1         -2.1520   -0.0894    0.5876 H         1 <0>         0.0000
     25 H2         -4.3362    1.6322   -2.6829 H         1 <0>         0.0000
     26 H3         -2.6844    0.7813   -4.2995 H         1 <0>         0.0000
     27 H4         -0.9050   -0.4434   -4.6553 H         1 <0>         0.0000
     28 H5         -0.0454   -2.2001   -1.8199 H         1 <0>         0.0000
     29 H6          2.5290   -3.0336   -2.4413 H         1 <0>         0.0000
     30 H7          2.7083   -1.2745   -2.0909 H         1 <0>         0.0000
     31 H8          1.1328   -2.9623   -0.1192 H         1 <0>         0.0000
     32 H9          2.9343   -3.1283   -0.1385 H         1 <0>         0.0000
     33 H10         4.3279    1.4776    0.6104 H         1 <0>         0.0000
     34 H11         2.6026    2.2592    2.2218 H         1 <0>         0.0000
     35 H12         0.0893    2.7919    2.0968 H         1 <0>         0.0000
     36 H13        -0.9710    1.4521    1.5412 H         1 <0>         0.0000
     37 H14        -0.9615    2.3358    4.4443 H         1 <0>         0.0000
     38 H15        -1.9386    3.2078    3.2150 H         1 <0>         0.0000
     39 H16        -2.2346    1.4633    3.5255 H         1 <0>         0.0000
@<TRIPOS>BOND
     1    1    2 ar
     2    2    3 ar
     3    3    4 ar
     4    4    5 ar
     5    1    6 ar
     6    5    6 ar
     7    4    7 1
     8    1    8 1
     9    8    9 1
    10    9   10 2
    11    9   11 1
    12   11   12 1
    13   12   13 1
    14   13   14 1
    15   14   15 ar
    16   15   16 ar
    17   16   17 ar
    18   17   18 ar
    19   14   19 ar
    20   18   19 ar
    21   18   20 1
    22   20   21 1
    23   21   22 1
    24   19   23 1
    25    3   24 1
    26    5   25 1
    27    6   26 1
    28    8   27 1
    29   11   28 1
    30   12   29 1
    31   12   30 1
    32   13   31 1
    33   13   32 1
    34   16   33 1
    35   17   34 1
    36   21   35 1
    37   21   36 1
    38   22   37 1
    39   22   38 1
    40   22   39 1
@<TRIPOS>MOLECULE
pdb1fk9
   33    35     0     0     0
SMALL
NO_CHARGES

@<TRIPOS>ATOM
      1 C1         -4.0930    1.0145    0.5602 C.3       1 <0>         0.0000
      2 F1          1.6267   -3.1262   -0.4527 F         1 <0>         0.0000
      3 F2         -0.1552   -2.7508    0.6595 F         1 <0>         0.0000
      4 F3         -0.2781   -3.3009   -1.3965 F         1 <0>         0.0000
      5 O1          1.7573   -1.3907   -4.2445 O.2       1 <0>         0.0000
      6 O2          1.3775   -0.9693   -2.0967 O.3       1 <0>         0.0000
      7 N1         -0.4093   -1.0785   -3.6017 N.am      1 <0>         0.0000
      8 C2         -1.3147   -0.5509   -2.6256 C.ar      1 <0>         0.0000
      9 C3         -2.6150   -0.1334   -2.9693 C.ar      1 <0>         0.0000
     10 C4         -3.4620    0.3570   -1.9622 C.ar      1 <0>         0.0000
     11 C5         -3.0339    0.4143   -0.6458 C.ar      1 <0>         0.0000
     12 C6         -1.7713   -0.0045   -0.2943 C.ar      1 <0>         0.0000
     13 C7         -0.9265   -0.5256   -1.2788 C.ar      1 <0>         0.0000
     14 C8          0.4836   -1.0577   -0.9337 C.3       1 <0>         0.0000
     15 C9          1.1121   -0.3288    0.1908 C.1       1 <0>         0.0000
     16 C10         1.5910    0.2659    1.0789 C.1       1 <0>         0.0000
     17 C11         2.2941    1.1392    2.3593 C.3       1 <0>         0.0000
     18 C12         2.6693    2.2058    1.8659 C.3       1 <0>         0.0000
     19 C13         1.5715    2.1304    2.5202 C.3       1 <0>         0.0000
     20 C14         0.4166   -2.5799   -0.5226 C.3       1 <0>         0.0000
     21 C15         0.9595   -1.1628   -3.3921 C.2       1 <0>         0.0000
     22 H1         -3.5408    1.1431    1.5028 H         1 <0>         0.0000
     23 H2         -4.5016    1.9842    0.2396 H         1 <0>         0.0000
     24 H3         -4.9166    0.3014    0.7124 H         1 <0>         0.0000
     25 H4         -0.7801   -1.4004   -4.4729 H         1 <0>         0.0000
     26 H5         -2.9559   -0.1895   -3.9926 H         1 <0>         0.0000
     27 H6         -4.4566    0.6927   -2.2163 H         1 <0>         0.0000
     28 H7         -1.4368    0.0685    0.7300 H         1 <0>         0.0000
     29 H8          2.7454    0.3887    3.0249 H         1 <0>         0.0000
     30 H9          3.5763    2.8060    2.0304 H         1 <0>         0.0000
     31 H10         2.9848    2.5594    0.8732 H         1 <0>         0.0000
     32 H11         0.5304    2.3317    2.2275 H         1 <0>         0.0000
     33 H12         1.1080    2.6539    3.3694 H         1 <0>         0.0000
@<TRIPOS>BOND
     1    7    8 1
     2    8    9 ar
     3    9   10 ar
     4    1   11 1
     5   10   11 ar
     6   11   12 ar
     7    8   13 ar
     8   12   13 ar
     9    6   14 1
    10   13   14 1
    11   14   15 1
    12   15   16 3
    13   16   17 1
    14   17   18 1
    15   17   19 1
    16   18   19 1
    17    2   20 1
    18    3   20 1
    19    4   20 1
    20   14   20 1
    21    5   21 2
    22    6   21 1
    23    7   21 am
    24    1   22 1
    25    1   23 1
    26    1   24 1
    27    7   25 1
    28    9   26 1
    29   10   27 1
    30   12   28 1
    31   17   29 1
    32   18   30 1
    33   18   31 1
    34   19   32 1
    35   19   33 1
