#       Name:                   pdb1bqm
#       Creating User Name:     <unknown>
#       Creation Time:          Sep 11, 2015 11:54:37 AM
#       
#


@<TRIPOS>MOLECULE
pdb1bqm
   42    43    0
SMALL
USER_CHARGES


@<TRIPOS>ATOM
    1   C1    1.283    -0.585    -1.921    C.3    1    <0>    0.0  
    2   C2    0.61    -0.57    -3.448    C.2    1    <0>    0.0  
    3   C3    -1.364    0.706    -2.533    C.ar    1    <0>    0.0  
    4   C4    -0.812    0.606    -1.102    C.ar    1    <0>    0.0  
    5   C5    -1.658    0.808    0.032    C.ar    1    <0>    0.0  
    6   C6    -3.035    1.085    -0.118    C.ar    1    <0>    0.0  
    7   C7    -3.596    1.389    -1.526    C.ar    1    <0>    0.0  
    8   C8    -2.69    1.264    -2.724    C.ar    1    <0>    0.0  
    9   C9    1.395    0.65    0.449    C.2    1    <0>    0.0  
    10   C10    1.291    2.442    2.296    C.3    1    <0>    0.0  
    11   C11    1.885    2.12    3.694    C.3    1    <0>    0.0  
    12   C12    2.363    3.052    1.326    C.3    1    <0>    0.0  
    13   C13    1.472    -2.059    -1.316    C.3    1    <0>    0.0  
    14   C14    0.381    -4.184    0.131    C.3    1    <0>    0.0  
    15   C15    -5.247    1.718    1.215    C.3    1    <0>    0.0  
    16   N1    0.607    0.382    -0.878    N.am    1    <0>    0.0  
    17   N2    -0.569    0.24    -3.664    N.pl3    1    <0>    0.0  
    18   O1    2.682    0.395    0.496    O.2    1    <0>    0.0  
    19   O2    0.673    1.187    1.566    O.3    1    <0>    0.0  
    20   O3    -3.895    1.041    1.166    O.3    1    <0>    0.0  
    21   S1    1.55    -1.4    -4.769    S.2    1    <0>    0.0  
    22   S2    0.243    -2.341    0.086    S.3    1    <0>    0.0  
    23   H1    2.287    -0.171    -2.096    H    1    <0>    0.0  
    24   H2    -1.235    0.749    1.024    H    1    <0>    0.0  
    25   H3    -4.627    1.687    -1.651    H    1    <0>    0.0  
    26   H4    -3.019    1.583    -3.702    H    1    <0>    0.0  
    27   H5    0.493    3.169    2.508    H    1    <0>    0.0  
    28   H6    2.979    2.044    3.619    H    1    <0>    0.0  
    29   H7    1.62    2.923    4.398    H    1    <0>    0.0  
    30   H8    1.475    1.166    4.055    H    1    <0>    0.0  
    31   H9    1.918    3.195    0.33    H    1    <0>    0.0  
    32   H10    2.702    4.022    1.718    H    1    <0>    0.0  
    33   H11    3.22    2.367    1.25    H    1    <0>    0.0  
    34   H12    1.298    -2.803    -2.108    H    1    <0>    0.0  
    35   H13    2.496    -2.163    -0.927    H    1    <0>    0.0  
    36   H14    0.408    -4.576    -0.896    H    1    <0>    0.0  
    37   H15    1.304    -4.47    0.657    H    1    <0>    0.0  
    38   H16    -0.488    -4.604    0.66    H    1    <0>    0.0  
    39   H17    -5.538    1.882    2.263    H    1    <0>    0.0  
    40   H18    -5.192    2.685    0.694    H    1    <0>    0.0  
    41   H19    -5.995    1.078    0.724    H    1    <0>    0.0  
    42   H20    -0.84    0.482    -4.595    H    1    <0>    0.0  
@<TRIPOS>BOND
   1    1   2   1   
   2    3   4   ar   
   3    4   5   ar   
   4    5   6   ar   
   5    6   7   ar   
   6    3   8   ar   
   7    7   8   ar   
   8    10   11   1   
   9    10   12   1   
   10    1   13   1   
   11    1   16   1   
   12    4   16   1   
   13    9   16   am   
   14    2   17   1   
   15    3   17   1   
   16    9   18   2   
   17    9   19   1   
   18    10   19   1   
   19    6   20   1   
   20    15   20   1   
   21    2   21   2   
   22    13   22   1   
   23    14   22   1   
   24    1   23   1   
   25    5   24   1   
   26    7   25   1   
   27    8   26   1   
   28    10   27   1   
   29    11   28   1   
   30    11   29   1   
   31    11   30   1   
   32    12   31   1   
   33    12   32   1   
   34    12   33   1   
   35    13   34   1   
   36    13   35   1   
   37    14   36   1   
   38    14   37   1   
   39    14   38   1   
   40    15   39   1   
   41    15   40   1   
   42    15   41   1   
   43    17   42   1   
