#       Name:                   pdb1dtt
#       Creating User Name:     <unknown>
#       Creation Time:          Sep 11, 2015 11:54:37 AM
#       
#


@<TRIPOS>MOLECULE
pdb1dtt
   39    40    0
SMALL
USER_CHARGES


@<TRIPOS>ATOM
    1   C1    -1.463    -0.138    -2.767    C.ar    1    <0>    0.0  
    2   N1    -1.346    -0.371    -1.396    N.ar    1    <0>    0.0  
    3   C2    -2.275    0.096    -0.469    C.ar    1    <0>    0.0  
    4   C3    -3.37    0.811    -0.957    C.ar    1    <0>    0.0  
    5   C4    -3.493    1.059    -2.327    C.ar    1    <0>    0.0  
    6   C5    -2.564    0.59    -3.243    C.ar    1    <0>    0.0  
    7   Cl1    -4.575    1.365    0.107    Cl    1    <0>    0.0  
    8   N2    -0.633    -0.643    -3.714    N.pl3    1    <0>    0.0  
    9   C6    0.485    -1.362    -3.6    C.2    1    <0>    0.0  
    10   S1    1.501    -1.56    -4.999    S.2    1    <0>    0.0  
    11   N3    0.728    -1.933    -2.395    N.pl3    1    <0>    0.0  
    12   C7    2.1    -2.173    -1.908    C.3    1    <0>    0.0  
    13   C8    2.084    -2.473    -0.377    C.3    1    <0>    0.0  
    14   C9    2.216    -1.183    0.436    C.ar    1    <0>    0.0  
    15   N4    3.302    -0.356    0.206    N.ar    1    <0>    0.0  
    16   C10    3.463    0.867    0.824    C.ar    1    <0>    0.0  
    17   C11    2.494    1.304    1.729    C.ar    1    <0>    0.0  
    18   C12    1.379    0.496    1.994    C.ar    1    <0>    0.0  
    19   C13    1.222    -0.755    1.344    C.ar    1    <0>    0.0  
    20   O1    0.467    0.941    2.933    O.3    1    <0>    0.0  
    21   C14    -0.453    1.887    2.409    C.3    1    <0>    0.0  
    22   C15    -1.466    2.248    3.471    C.3    1    <0>    0.0  
    23   F1    0.139    -1.509    1.59    F    1    <0>    0.0  
    24   H1    -2.152    -0.089    0.588    H    1    <0>    0.0  
    25   H2    -4.336    1.632    -2.683    H    1    <0>    0.0  
    26   H3    -2.684    0.781    -4.3    H    1    <0>    0.0  
    27   H4    -0.905    -0.443    -4.655    H    1    <0>    0.0  
    28   H5    -0.045    -2.2    -1.82    H    1    <0>    0.0  
    29   H6    2.529    -3.034    -2.441    H    1    <0>    0.0  
    30   H7    2.708    -1.274    -2.091    H    1    <0>    0.0  
    31   H8    1.133    -2.962    -0.119    H    1    <0>    0.0  
    32   H9    2.934    -3.128    -0.139    H    1    <0>    0.0  
    33   H10    4.328    1.478    0.61    H    1    <0>    0.0  
    34   H11    2.603    2.259    2.222    H    1    <0>    0.0  
    35   H12    0.089    2.792    2.097    H    1    <0>    0.0  
    36   H13    -0.971    1.452    1.541    H    1    <0>    0.0  
    37   H14    -0.962    2.336    4.444    H    1    <0>    0.0  
    38   H15    -1.939    3.208    3.215    H    1    <0>    0.0  
    39   H16    -2.235    1.463    3.526    H    1    <0>    0.0  
@<TRIPOS>BOND
   1    1   2   ar   
   2    2   3   ar   
   3    3   4   ar   
   4    4   5   ar   
   5    1   6   ar   
   6    5   6   ar   
   7    4   7   1   
   8    1   8   1   
   9    8   9   1   
   10    9   10   2   
   11    9   11   1   
   12    11   12   1   
   13    12   13   1   
   14    13   14   1   
   15    14   15   ar   
   16    15   16   ar   
   17    16   17   ar   
   18    17   18   ar   
   19    14   19   ar   
   20    18   19   ar   
   21    18   20   1   
   22    20   21   1   
   23    21   22   1   
   24    19   23   1   
   25    3   24   1   
   26    5   25   1   
   27    6   26   1   
   28    8   27   1   
   29    11   28   1   
   30    12   29   1   
   31    12   30   1   
   32    13   31   1   
   33    13   32   1   
   34    16   33   1   
   35    17   34   1   
   36    21   35   1   
   37    21   36   1   
   38    22   37   1   
   39    22   38   1   
   40    22   39   1   
